8
0 1
Se    0.0916195    0.3872570   -1.6172447 
O    -1.0000891   -0.5936767   -2.2275575 
O    -0.3521324    1.7906744   -1.0147153 
O     1.6373048    0.1246745   -1.9186884 
Se    0.5958647   -0.9767559    0.8723839 
H     1.4258387    0.1801088    1.2365650 
N    -0.7316417   -0.5396450    1.9918105 
C    -1.6667645   -0.3726371    2.6774465 
