28
0 1
N     0.5002872    0.6597895   -0.2135215 
C    -0.3533470    0.5039426   -1.2192055 
C     0.0700285    0.2854391    0.9863515 
C    -1.6237393   -0.0086836   -1.0895386 
H     0.0001665    0.8092714   -2.1945478 
C    -1.1766976   -0.2396940    1.2375504 
H     0.7686616    0.4146533    1.8020152 
C    -2.0799167   -0.4031220    0.1769023 
H    -2.2458973   -0.0967805   -1.9629384 
H    -1.4374527   -0.5143720    2.2446407 
N    -3.3242960   -0.9127180    0.3653576 
C    -4.2254853   -1.0401270   -0.7511978 
H    -5.1608360   -1.4624488   -0.4059463 
H    -4.4374932   -0.0739861   -1.2112712 
H    -3.8202035   -1.6982614   -1.5202339 
C    -3.7574042   -1.2806531    1.6890872 
H    -4.7701761   -1.6603376    1.6383701 
H    -3.1247118   -2.0592682    2.1160656 
H    -3.7474994   -0.4273934    2.3686516 
Te    3.1415184    2.1677353   -0.3461043 
C     3.7005585    0.2035720   -0.4497500 
C     5.0421415    0.0612827   -0.4976367 
C     5.8353627    1.2491654   -0.4695607 
C     5.1814142    2.4300456   -0.3984891 
H     5.5036113   -0.9140682   -0.5558625 
H     6.9141210    1.1952732   -0.5041745 
H     5.6590144    3.3940473   -0.3697121 
H     2.9682704   -0.5823032   -0.4653015 
