9
-1 1
C     0.3733040    0.9276149    0.0000000 
C     0.7928539   -0.3600324    0.0000000 
C    -1.0503136    1.0326754    0.0000000 
N    -1.7502981   -0.0545692    0.0000000 
Se   -0.6159724   -1.5430103    0.0000000 
H     1.0328767    1.7828793    0.0000000 
H     1.7909166   -0.7559969    0.0000000 
H    -1.5481142    2.0019877    0.0000000 
F     0.9747470   -3.0315486    0.0000000 
