10
0 1
C     0.4060847    2.6689249    0.3694331 
Te   -0.1578073    2.0686634   -1.5967809 
C     0.1354825    4.1112965   -1.9440911 
H    -0.0190493    4.5398463   -2.9226058 
C     0.5296002    4.8365531   -0.8946865 
H     0.7259718    5.8977080   -0.9352593 
C     0.7182577    4.1562817    0.3828460 
O     1.0917258    4.6990287    1.3984140 
H     1.2772171    2.1122608    0.6955203 
H    -0.4088209    2.4703659    1.0566506 
