9
0 1
O     1.1555257   -0.1748046    0.0000000 
C     1.7859111   -0.6366589   -1.1713418 
C     1.7859111   -0.6366589    1.1713418 
H     1.2325638   -0.2435778   -2.0167545 
H     2.8182651   -0.2866996   -1.2193364 
H     1.7798358   -1.7274129   -1.2157922 
H     1.2325638   -0.2435778    2.0167545 
H     1.7798358   -1.7274129    1.2157922 
H     2.8182651   -0.2866996    1.2193364 
