7
0 1
S     1.5024273   -0.2319609    0.0000000 
F     1.3283274    1.3514947    0.0000000 
F     3.1027378   -0.2429866    0.0000000 
C    -1.4793486   -0.2207048    0.5977756 
C    -1.4793486   -0.2207048   -0.5977756 
H    -1.4873976   -0.2175688    1.6580048 
H    -1.4873976   -0.2175688   -1.6580048 
