9
-1 1
C     0.3495526    0.9670046    0.0000000 
C     0.7212197   -0.3369656    0.0000000 
C    -1.0631291    1.1296926    0.0000000 
N    -1.8168696    0.0724199    0.0000000 
Se   -0.7582727   -1.4246502    0.0000000 
H     1.0433600    1.7932262    0.0000000 
H     1.6982468   -0.7836453    0.0000000 
H    -1.5340286    2.1085904    0.0000000 
Cl    1.3599208   -3.5256726    0.0000000 
