7
0 1
Se   -0.2017392    1.1261028    0.0000000 
O     0.4574339    1.5795955   -1.3755451 
O    -1.7085590    0.6071643    0.0000000 
O     0.4574339    1.5795955    1.3755451 
S     0.8883270   -1.3670208    0.0000000 
H     0.0510493   -1.7640516    0.9672525 
H     0.0510493   -1.7640516   -0.9672525 
