8
0 1
S     0.1069239    0.4003793   -1.6745120 
O    -0.8595346   -0.4771090   -2.2336768 
O    -0.2996341    1.6453299   -1.1264545 
O     1.4884179    0.1827282   -1.9605486 
Te    0.5949202   -1.0503945    0.8102949 
H     1.5464596    0.2156483    1.2919066 
N    -0.8347823   -0.5561428    2.0899372 
C    -1.7427706   -0.3604392    2.8030532 
