8
0 1
S     1.8235459    1.3957003    0.3151339 
N     3.2384630    2.2173713    0.2581908 
C     3.9754153    1.7415994   -0.7155466 
C     3.4185308    0.6818564   -1.4613891 
C     2.1800969    0.3727171   -0.9827446 
H     4.9477540    2.1763149   -0.8912357 
H     3.9013307    0.1895080   -2.2873028 
H     1.4842394   -0.3754334   -1.3117221 
