37
0 1
C     1.9656009   -3.6060920   -1.2792344 
C     2.3614780   -3.4436282    0.9607935 
C     2.9706430   -4.6837863    0.9939865 
C     3.0703947   -5.4014104   -0.1832675 
C     2.5578560   -4.8533221   -1.3440653 
H     1.5450597   -3.1431439   -2.1603260 
H     2.2561300   -2.8513062    1.8583717 
H     3.3524153   -5.0744682    1.9229543 
H     3.5374737   -6.3735909   -0.1952415 
H     2.6103892   -5.3791839   -2.2832460 
N     1.8716933   -2.9121599   -0.1521405 
Se   -0.0018636   -0.9729370    0.0239937 
C    -2.5305332    0.2261358    0.3262767 
C    -2.6940043    2.6897213    0.2643855 
C    -0.6580970    1.7322875    0.0178569 
C    -3.3264281    1.4395238    0.3936187 
C     0.7759334    1.6662083   -0.1770790 
C     1.5970515    2.7749110   -0.3289668 
C    -3.4850140    3.8444874    0.3345093 
C     1.3101824    0.3781446   -0.2061740 
C     2.9499403    2.5942817   -0.5097382 
C    -4.7048813    1.3579295    0.5858131 
C    -4.8394353    3.7481352    0.5241871 
C     2.6726059    0.1974364   -0.3896220 
C     3.4794424    1.3084269   -0.5393755 
C    -5.4591275    2.5017897    0.6512307 
N    -1.3448474    2.8244146    0.0747934 
N    -1.1895954    0.4816571    0.1333149 
O    -2.9293853   -0.9194931    0.4207660 
H     1.1481687    3.7550733   -0.3011565 
H    -2.9955212    4.7998942    0.2351258 
H    -5.1470542    0.3787754    0.6791925 
H     3.5993506    3.4465768   -0.6288366 
H     3.0943132   -0.7914577   -0.4163083 
H    -5.4349961    4.6465720    0.5760647 
H     4.5400753    1.1710012   -0.6823915 
H    -6.5254137    2.4425962    0.7999349 
