9
0 1
S     0.1969598   -2.5762630    0.9902271 
C     0.7011727   -2.7172487   -0.6302095 
C     1.3121575   -3.9099504   -0.8593937 
C     1.3738247   -4.7196739    0.2998746 
C     0.8045210   -4.1202768    1.3798373 
H     1.7029575   -4.2005609   -1.8199132 
H     1.8184646   -5.7000055    0.3299640 
H     0.7106568   -4.5068448    2.3776385 
H     0.5077445   -1.9089943   -1.3088646 
