7
0 1
S     0.4520114   -0.7125269   -0.1432466 
H     1.5401686   -0.3155659    0.5476721 
O    -0.6838156    0.1717890    0.5939964 
C    -1.3274323   -0.4604695    1.7057932 
H    -2.1353108    0.2047899    1.9849334 
H    -0.6332845   -0.5693365    2.5355117 
H    -1.7244472   -1.4308797    1.4209414 
