9
0 1
Se    2.4240586    0.7233703    0.0000000 
C     2.3216863   -0.5656563   -1.4488931 
C     2.3216863   -0.5656563    1.4488931 
H     2.3607726   -0.0069915   -2.3769280 
H     3.1637853   -1.2464307   -1.4000511 
H     1.3835622   -1.1058980   -1.3928956 
H     2.3607726   -0.0069915    2.3769280 
H     1.3835622   -1.1058980    1.3928956 
H     3.1637853   -1.2464307    1.4000511 
