9
0 1
Te   -0.2066062   -2.5819472    0.9397702 
C     1.0726644   -2.5355608   -0.6547918 
C     1.6635134   -3.7305341   -0.8659466 
C     1.3250872   -4.8012527    0.0178345 
C     0.4340127   -4.5376157    0.9986818 
H     2.3667679   -3.8773794   -1.6729234 
H     1.7697063   -5.7786269   -0.1026591 
H     0.0960967   -5.2529251    1.7283195 
H     1.2224915   -1.6449663   -1.2371068 
