9
-1 1
C     0.3389367    0.9708744    0.0000000 
C     0.6125103   -0.3669853    0.0000000 
C    -1.0541704    1.1816898    0.0000000 
N    -1.8038391    0.1057374    0.0000000 
S    -0.8371477   -1.2291087    0.0000000 
H     1.0814159    1.7507084    0.0000000 
H     1.5439745   -0.9063957    0.0000000 
H    -1.5316712    2.1520202    0.0000000 
Br    1.6499909   -3.6585406    0.0000000 
