7
0 1
Se   -0.0000000    0.0000000    1.3094115 
O     0.0000000    0.0000000    4.1731656 
C     0.0000000    0.0000000    3.0246959 
N    -0.0000000    0.0000000   -1.8471605 
H    -0.4690398   -0.8124007   -2.2200375 
H    -0.4690398    0.8124007   -2.2200375 
H     0.9380795    0.0000000   -2.2200375 
