11
0 1
C     0.9497071   -4.1551826    2.4921762 
C     0.8608130   -2.8493263    2.0475834 
C     0.8172530   -5.1763694    1.5698666 
C     0.5259854   -3.5181891   -0.1068471 
C     0.6008059   -4.8533771    0.2433417 
N     0.6559717   -2.5352030    0.7748326 
H     0.3536209   -3.2192880   -1.1307903 
H     1.1173744   -4.3613507    3.5365847 
H     0.9557156   -2.0197695    2.7334703 
H     0.8802501   -6.2074564    1.8802199 
H     0.4899792   -5.6172511   -0.5087165 
