7
0 1
Te    1.3029716   -0.4557880    0.0000000 
F     1.1522402    1.4382117    0.0000000 
F     3.2167531   -0.2715262    0.0000000 
C    -1.3773501   -0.1902345    0.6021887 
C    -1.3773501   -0.1902345   -0.6021887 
H    -1.4586324   -0.1652142    1.6599668 
H    -1.4586324   -0.1652142   -1.6599668 
