8
0 1
Te   -0.2858387   -2.5468830    0.8077076 
C     1.1472548   -2.5179549   -0.6489085 
C     1.6003707   -3.7690412   -0.8627901 
C     0.9999316   -4.7945624   -0.0540942 
N     0.0885520   -4.5227115    0.8161704 
H     2.3637995   -4.0022115   -1.5900081 
H     1.3124309   -5.8293090   -0.1684625 
H     1.4834938   -1.6349031   -1.1619916 
