8
0 1
Te    0.0603836    0.4272601   -1.7168229 
O    -1.1132589   -0.5787792   -2.5869957 
O    -0.2967716    2.1247820   -1.3418772 
O     1.7507574   -0.1491012   -1.5467002 
Se    0.4840210   -0.8614174    0.8129624 
H     1.2374492    0.3560791    1.1350292 
N    -0.6552458   -0.6599592    2.1998564 
C    -1.4673349   -0.6588643    3.0445480 
