10
0 1
C     0.8199024   -0.1798354   -0.6022179 
C     0.8199024   -0.1798354    0.6022179 
C     0.8678685   -0.1240961   -2.0509194 
H     1.8919450    0.0076536   -2.3919314 
H     0.4746993   -1.0347128   -2.4944703 
H     0.2754671    0.7121661   -2.4157956 
C     0.8678685   -0.1240961    2.0509194 
H     0.4746993   -1.0347128    2.4944703 
H     1.8919450    0.0076536    2.3919314 
H     0.2754671    0.7121661    2.4157956 
