7
0 1
Te   -0.1598261    0.3819165   -1.2543738 
O    -1.2558670   -0.6376742   -2.2083316 
O    -0.6173924    2.0414201   -0.8174178 
O     1.5769565   -0.0780110   -1.1411088 
Se    0.3898068   -0.9795187    1.1152251 
H     1.0382498    0.2767169    1.5101426 
Cl   -0.9719277   -1.0048496    2.7958642 
