7
0 1
Se    0.4240425   -0.8649704   -0.2158755 
H     1.5506696   -0.3835751    0.6089187 
O    -0.8490446    0.0893511    0.5654595 
C    -1.3658384   -0.4583720    1.7742995 
H    -2.1831012    0.1945357    2.0613759 
H    -0.6105436   -0.4587330    2.5583676 
H    -1.7411342   -1.4686469    1.6266705 
