9
0 1
C     0.6416793    1.3351619    0.0000000 
C     1.5466749    0.3167151    0.0000000 
C    -0.6918504    0.8596666    0.0000000 
C    -0.7656914   -0.4999232    0.0000000 
S     0.7798951   -1.2084782    0.0000000 
H     0.9146180    2.3784394    0.0000000 
H     2.6190516    0.3918513    0.0000000 
H    -1.5610271    1.4969319    0.0000000 
H    -1.6136451   -1.1651943    0.0000000 
