7
0 1
S     1.6185479   -0.2270855    0.0000000 
Cl    1.4619967    1.7814350    0.0000000 
Cl    3.6177999   -0.5166835    0.0000000 
C    -1.6742919   -0.2608116    0.5971851 
C    -1.6742919   -0.2608116   -0.5971851 
H    -1.6748803   -0.2580214    1.6572661 
H    -1.6748803   -0.2580214   -1.6572661 
