29
0 1
N     3.6502397    0.4744776   -2.1576576 
Te    1.7096434    0.0801305   -1.5936714 
C     2.5364519    0.7403285    0.1774218 
H     1.9447117    0.7977020    1.0743747 
C     3.8215592    1.0716942    0.0911179 
H     4.3991416    1.4346341    0.9265577 
C     4.5051874    0.9408549   -1.2094330 
H     4.0299089    0.3525786   -3.0801464 
O     5.6778428    1.2151426   -1.4021854 
H     0.3669060   -0.7821534    1.6201092 
H     0.0332680   -2.0729710    0.4820466 
C    -0.3634249   -1.1540954    0.9061715 
N    -0.4820403   -0.1752933   -0.1778668 
H    -0.2527502    1.4668982    1.0758196 
H    -1.0260791   -1.6010435   -1.5836316 
C    -0.9801933    1.0936094    0.3596587 
C    -1.4320605   -0.6781995   -1.1743434 
H    -1.0269451    1.8062258   -0.4598465 
H    -1.4812966    0.0491184   -1.9821440 
C    -1.7497435   -1.3625944    1.5607000 
H    -1.7292380   -1.0967763    2.6148794 
H    -2.0637634   -2.4011847    1.4893039 
C    -2.3628644    0.8637114    1.0147547 
C    -2.8095241   -0.8974191   -0.5086639 
N    -2.7467132   -0.5349637    0.8987513 
H    -2.3454690    1.1279553    2.0693887 
H    -3.1187801   -1.9372632   -0.5819454 
H    -3.1281329    1.4701200    0.5361905 
H    -3.5758417   -0.2912241   -0.9857108 
