8
0 1
S     0.0829570    0.3863418   -1.5647671 
O    -0.9179783   -0.5340346   -1.9632637 
O    -0.2825131    1.6089418   -0.9459054 
O     1.4335726    0.1712748   -1.9481368 
S     0.6161187   -0.9034758    0.8890774 
H     1.3985658    0.1146085    1.2793041 
N    -0.6730352   -0.5056531    1.8208798 
C    -1.6576875   -0.3380035    2.4328117 
