10
-1 1
N    -1.0325660   -1.1181683    0.0000000 
Te    1.0728025   -1.4988219    0.0000000 
C     0.9450378    0.5561878    0.0000000 
H     1.8712467    1.1056577    0.0000000 
C    -0.2840126    1.0741731    0.0000000 
H    -0.4785942    2.1363439    0.0000000 
C    -1.4405968    0.1639705    0.0000000 
H    -1.7690643   -1.8029239    0.0000000 
O    -2.6156493    0.5464988    0.0000000 
Cl    3.7313962   -1.1629178    0.0000000 
