10
-1 1
C     0.6564321    1.3077809    0.0000000 
C     1.5534846    0.2897364    0.0000000 
C    -0.7017778    0.8862181    0.0000000 
C    -0.8812586   -0.4570026    0.0000000 
Se    0.7199034   -1.3759777    0.0000000 
H     0.9456015    2.3485256    0.0000000 
H     2.6253958    0.3833020    0.0000000 
H    -1.5291562    1.5794806    0.0000000 
H    -1.7844892   -1.0403704    0.0000000 
Br   -1.6041355   -3.9216928    0.0000000 
