7
0 1
Te   -0.0829299   -1.3351899   -0.7293725 
H     1.1488699   -1.1849626    0.3746360 
O    -1.4215300   -1.2043596    0.6864290 
C    -1.2411996   -0.2269113    1.6960031 
H    -2.0526271   -0.3458059    2.4067976 
H    -1.2737452    0.7819083    1.2844190 
H    -0.2908971   -0.3624485    2.2152152 
