28
0 1
C    -3.6210130    1.7031680   -0.3249212 
C    -2.2803871    1.3789728   -0.4671322 
C    -1.8622074    0.0582922   -0.3469553 
C    -2.7882778   -0.9385218   -0.0796396 
C    -4.1229177   -0.6040131    0.0588094 
C    -4.5444349    0.7133238   -0.0630549 
H    -3.9012598    2.7402959   -0.4258849 
H    -2.4850181   -1.9657853    0.0235236 
H    -4.8425732   -1.3815113    0.2651840 
H    -5.5887138    0.9587068    0.0478203 
N    -0.0269415    1.9223897   -0.8411298 
C    -1.2780280    2.4326177   -0.7477459 
O    -1.5617329    3.6139503   -0.8767639 
C     1.0900906    2.7832539   -1.1465309 
H     0.6997241    3.8001915   -1.1463146 
H     1.4642987    2.5775320   -2.1505690 
C     2.2154304    2.6478010   -0.1591131 
C     3.5286657    2.5454787   -0.5898187 
C     1.9544174    2.6363173    1.2053536 
C     4.5665266    2.4429729    0.3216117 
H     3.7394634    2.5446406   -1.6495378 
C     2.9868375    2.5339143    2.1172249 
H     0.9316517    2.7028909    1.5446132 
C     4.2976871    2.4371414    1.6778722 
H     5.5836996    2.3631719   -0.0293039 
H     2.7703478    2.5292916    3.1742763 
H     5.1035366    2.3544380    2.3902705 
Te    0.2068076   -0.1224278   -0.5857726 
