7
0 1
Te   -0.2523505    0.3750922   -1.1713020 
O    -1.2820316   -0.6075795   -2.2301604 
O    -0.5942284    2.0887863   -0.8595492 
O     1.4578320   -0.1881707   -0.8987671 
Se    0.3718764   -0.9437926    1.0877020 
H     0.9218762    0.3434099    1.5277759 
F    -0.6229741   -1.0677456    2.5443007 
