8
0 1
C     0.3488171    0.9663703    0.0000000 
C     0.7827302   -0.3112492    0.0000000 
C    -1.0793766    1.1335325    0.0000000 
N    -1.8728042    0.1194663    0.0000000 
Te   -0.7824072   -1.6205472    0.0000000 
H     1.0153018    1.8185376    0.0000000 
H     1.7989052   -0.6629278    0.0000000 
H    -1.4992575    2.1419505    0.0000000 
