9
0 1
Se    0.2666939    0.6990000   -1.8717041 
O    -0.7095239   -0.3223047   -2.6140102 
O    -0.3684791    1.8839618   -1.0122761 
O     1.7614858    0.8658660   -2.4170966 
Te    1.1535328   -1.0542055    0.3117541 
H     1.9687917    0.2342054    0.9611250 
C    -0.4152943   -0.8451088    1.5536294 
C    -1.3958569   -0.7715414    2.2398360 
H    -2.2613500   -0.6898729    2.8487426 
