7
0 1
Te   -0.0000000    0.0000000    1.1967788 
S     0.0000000    0.0000000    4.6555901 
C     0.0000000    0.0000000    3.1125381 
N    -0.0000000    0.0000000   -1.9634655 
H    -0.4694838   -0.8131698   -2.3338139 
H    -0.4694838    0.8131698   -2.3338139 
H     0.9389676    0.0000000   -2.3338139 
