8
0 1
Te   -0.2638425   -2.6558850    0.7814162 
C     1.1810087   -2.6105289   -0.6636432 
C     1.6551591   -3.8548205   -0.8706571 
C     1.0640681   -4.8877549   -0.0640181 
N     0.1411020   -4.6275763    0.7970749 
H     2.4276368   -4.0779860   -1.5915016 
H     1.3947123   -5.9175981   -0.1730508 
H     1.5066915   -1.7241093   -1.1779104 
