10
-1 1
N    -0.9875375   -1.0854237    0.0000000 
Se    0.9071941   -1.3446237    0.0000000 
C     0.9071759    0.5148294    0.0000000 
H     1.8754018    0.9822487    0.0000000 
C    -0.2988754    1.0932581    0.0000000 
H    -0.4544420    2.1591942    0.0000000 
C    -1.4469068    0.1890874    0.0000000 
H    -1.6521418   -1.8375465    0.0000000 
O    -2.6352178    0.5113909    0.0000000 
Br    3.7853494   -1.1824147    0.0000000 
