10
0 1
C     0.8169872   -0.1573643   -0.6011652 
C     0.8169872   -0.1573643    0.6011652 
C     0.8343806   -0.1215122   -2.0507044 
H     1.8517603   -0.0201620   -2.4207836 
H     0.4094914   -1.0293915   -2.4709981 
H     0.2537348    0.7222620   -2.4171833 
C     0.8343806   -0.1215122    2.0507044 
H     0.4094914   -1.0293915    2.4709981 
H     1.8517603   -0.0201620    2.4207836 
H     0.2537348    0.7222620    2.4171833 
