7
0 1
Se   -0.1313902    0.3636468   -1.2710287 
O    -1.1255883   -0.4799754   -2.1865320 
O    -0.4495429    1.8928497   -0.9554632 
O     1.4283444   -0.1029094   -1.2274504 
Te    0.3551205   -1.0317616    1.0651366 
H     1.0807067    0.3800939    1.5279436 
Br   -1.1576501   -1.0219439    3.0473941 
