7
0 1
S    -0.2184227    1.1776542    0.0000000 
O     0.3805917    1.5695476   -1.2274885 
O    -1.5595275    0.7054655    0.0000000 
O     0.3805917    1.5695476    1.2274885 
Se    0.9377180   -1.3506565    0.0000000 
H     0.0371046   -1.8372856    1.0470374 
H     0.0371046   -1.8372856   -1.0470374 
