11
0 1
C     1.9656009   -3.6060920   -1.2792344 
C     2.3614780   -3.4436282    0.9607935 
C     2.9706430   -4.6837863    0.9939865 
C     3.0703947   -5.4014104   -0.1832675 
C     2.5578560   -4.8533221   -1.3440653 
H     1.5450597   -3.1431439   -2.1603260 
H     2.2561300   -2.8513062    1.8583717 
H     3.3524153   -5.0744682    1.9229543 
H     3.5374737   -6.3735909   -0.1952415 
H     2.6103892   -5.3791839   -2.2832460 
N     1.8716933   -2.9121599   -0.1521405 
