9
0 1
N     4.3681217   -3.1922279    0.0000000 
Te    2.3991680   -2.5754370    0.0000000 
C     3.4079193   -0.7765714    0.0000000 
H     2.8520783    0.1453272    0.0000000 
C     4.7334366   -0.8880394    0.0000000 
H     5.3996064   -0.0396225    0.0000000 
C     5.3336638   -2.2353611    0.0000000 
H     4.6878976   -4.1450341    0.0000000 
O     6.5348551   -2.4566042    0.0000000 
