7
0 1
S     0.3872956   -0.7769873   -0.0887613 
H     1.4861841   -0.3504152    0.5709876 
O    -0.7518945    0.1083801    0.6376736 
C    -1.3542844   -0.4945348    1.7921899 
H    -2.1712033    0.1635790    2.0604270 
H    -0.6371860   -0.5495399    2.6069483 
H    -1.7326755   -1.4845939    1.5546214 
