8
0 1
S     0.0000000    0.0000000    1.0469939 
O    -0.7064608   -1.2236260    1.2280418 
O    -0.7064608    1.2236260    1.2280418 
O     1.4129217    0.0000000    1.2280418 
H     0.4791269   -0.8298722   -1.2637848 
N     0.0000000    0.0000000   -0.9397650 
H    -0.9582539    0.0000000   -1.2637848 
H     0.4791269    0.8298722   -1.2637848 
