7
0 1
Se   -0.0738177    0.3232189   -1.1651242 
O    -1.0841364   -0.7183070   -1.8172478 
O    -0.6489103    1.6430195   -0.4836264 
O     1.4732335    0.2638530   -1.5508732 
S     0.4183976   -1.0080977    1.1265924 
H     1.1981605    0.0118493    1.5174414 
Br   -1.2829272   -0.5155361    2.3728378 
