9
0 1
O     1.8946254    0.2046744    0.0000000 
C     2.2811330   -0.4764500   -1.1649590 
C     2.2811330   -0.4764500    1.1649590 
H     1.9331761    0.1015965   -2.0138846 
H     3.3677673   -0.5797477   -1.2185248 
H     1.8304229   -1.4712107   -1.2072918 
H     1.9331761    0.1015965    2.0138846 
H     1.8304229   -1.4712107    1.2072918 
H     3.3677673   -0.5797477    1.2185248 
