8
0 1
S     0.0864356    0.3962443   -1.6168137 
O    -0.9065997   -0.5184066   -2.0493500 
O    -0.2911131    1.6139226   -0.9955767 
O     1.4423532    0.1915628   -1.9919002 
Se    0.6471137   -0.9833682    0.8810238 
H     1.4764433    0.1486585    1.3149797 
N    -0.7425725   -0.5201102    1.9151978 
C    -1.7120605   -0.3285030    2.5424393 
