9
0 1
S     0.2645864   -1.1398365    0.0000000 
C    -0.6885897   -0.4345566   -1.2326419 
C    -1.7034457    0.2946178   -0.7104576 
C    -1.7034457    0.2946178    0.7104576 
C    -0.6885897   -0.4345566    1.2326419 
H    -0.4432778   -0.6000367   -2.2647005 
H    -2.4264803    0.8186596   -1.3118477 
H    -2.4264803    0.8186596    1.3118477 
H    -0.4432778   -0.6000367    2.2647005 
