10
0 1
C    -0.1588950   -0.7760118    0.6687430 
Te    1.2592524   -1.0161539   -0.9110438 
C     0.5771672    0.9544078   -1.2871305 
H     0.9549490    1.5481877   -2.1105332 
C    -0.3538665    1.4453205   -0.4540296 
H    -0.7876682    2.4339034   -0.5315125 
C    -0.8101469    0.5866028    0.6268628 
O    -1.6509760    0.9158509    1.4484369 
H     0.3573120   -0.9294878    1.6097267 
H    -0.8998477   -1.5622165    0.5774406 
