8
0 1
Se    0.3126905   -2.5264093    0.9880201 
C     0.8165918   -2.7152333   -0.7720898 
C     1.2042714   -3.9926275   -0.9953776 
C     1.1130398   -4.8021504    0.1713771 
N     0.6904503   -4.2706139    1.2782726 
H     1.5447874   -4.3627097   -1.9482639 
H     1.3823595   -5.8507511    0.1775374 
H     0.7850586   -1.8999413   -1.4699637 
