11
-1 1
C    -0.0948187   -0.7292228    0.5627743 
S     1.0384916   -0.7001004   -0.8376648 
C     0.5451909    0.9013987   -1.2158293 
H     1.0023708    1.3823731   -2.0674449 
C    -0.3863214    1.4730071   -0.4296734 
H    -0.7817209    2.4670582   -0.5563953 
C    -0.8256851    0.5983869    0.6374138 
O    -1.6566685    0.8518555    1.4887353 
H     0.4736499   -0.9342135    1.4641934 
H    -0.7758690   -1.5651859    0.4404907 
Br    1.4613803   -3.7453569    0.5134002 
