9
-1 1
C     0.3417196    0.9792612    0.0000000 
C     0.7657750   -0.3018932    0.0000000 
C    -1.0838693    1.1583202    0.0000000 
N    -1.8881370    0.1516950    0.0000000 
Te   -0.8150095   -1.5921573    0.0000000 
H     1.0154987    1.8253810    0.0000000 
H     1.7790602   -0.6618320    0.0000000 
H    -1.4973789    2.1686721    0.0000000 
Br    1.3823412   -3.7274470    0.0000000 
