8
0 1
C     0.3313337    0.9928553    0.0000000 
C     0.6781665   -0.3174970    0.0000000 
C    -1.0766698    1.1836382    0.0000000 
N    -1.8548532    0.1433270    0.0000000 
Se   -0.8295992   -1.3677599    0.0000000 
H     1.0423551    1.8036247    0.0000000 
H     1.6505559   -0.7752813    0.0000000 
H    -1.5303043    2.1694993    0.0000000 
