9
0 1
S     2.3287756    0.6229220    0.0000000 
C     2.3121164   -0.5421242   -1.3667244 
C     2.3121164   -0.5421242    1.3667244 
H     2.3113660    0.0364010   -2.2845209 
H     3.1962285   -1.1728864   -1.3478616 
H     1.4145476   -1.1531300   -1.3381293 
H     2.3113660    0.0364010    2.2845209 
H     1.4145476   -1.1531300    1.3381293 
H     3.1962285   -1.1728864    1.3478616 
