7
0 1
S    -0.1138971    0.3424682   -1.1384306 
O    -1.0447805   -0.4682112   -1.8374971 
O    -0.4758850    1.6533793   -0.7314465 
O     1.2838917    0.0104362   -1.2187193 
Se    0.2605806   -0.9335940    1.0588065 
H     0.9884121    0.2601482    1.5103855 
F    -0.8983218   -0.8646267    2.3569015 
