29
0 1
C    -0.6821511    1.1595085   -1.4923956 
C    -0.7845287    2.6838794   -1.2370586 
H     0.1008216    0.9300976   -2.2135498 
H    -1.6160510    0.7568487   -1.8801542 
H    -0.0539956    3.2351726   -1.8260183 
H    -1.7707952    3.0641163   -1.4963067 
C     0.8942450    0.9715339    0.2740403 
H     1.1230742    0.4262627    1.1874226 
H     1.6750829    0.7395672   -0.4483564 
C     0.7888251    2.4948628    0.5292464 
H     0.9634836    2.7345282    1.5763620 
H     1.5168810    3.0485461   -0.0605239 
C    -1.5304555    2.2624799    0.9753775 
H    -1.3532049    2.5055418    2.0212791 
H    -2.5159516    2.6420113    0.7120982 
C    -1.4254153    0.7383027    0.7236624 
H    -1.1877248    0.1972396    1.6375267 
H    -2.3571846    0.3320294    0.3348047 
N    -0.3715249    0.4693350   -0.2471402 
N    -0.5418896    2.9679547    0.1705233 
S     0.1969598   -2.5762630    0.9902271 
C     0.7011727   -2.7172487   -0.6302095 
C     1.3121575   -3.9099504   -0.8593937 
C     1.3738247   -4.7196739    0.2998746 
C     0.8045210   -4.1202768    1.3798373 
H     1.7029575   -4.2005609   -1.8199132 
H     1.8184646   -5.7000055    0.3299640 
H     0.7106568   -4.5068448    2.3776385 
H     0.5077445   -1.9089943   -1.3088646 
