10
0 1
C     0.2976249    2.6210560    0.3194133 
Se   -0.0119735    2.0894592   -1.5210544 
C     0.2518986    3.8938707   -1.9692892 
H     0.1833151    4.1865562   -3.0044776 
C     0.5124560    4.7295430   -0.9599536 
H     0.6813724    5.7877653   -1.0742930 
C     0.5557226    4.1202758    0.3618131 
O     0.7669563    4.6963078    1.4034941 
H     1.1536246    2.0826211    0.7105611 
H    -0.5703014    2.3737208    0.9197219 
