11
0 1
C     0.9427778   -4.3400192    2.4428366 
C     1.2301957   -3.0373610    2.0775709 
C     0.2496503   -5.1366735    1.5509355 
C     0.2036213   -3.2838064    0.0635840 
C    -0.1283199   -4.5987061    0.3352514 
N     0.8715557   -2.5133961    0.9126245 
H    -0.0816115   -2.8228515   -0.8717479 
H     1.2553285   -4.7153749    3.4037014 
H     1.7699110   -2.3849757    2.7498112 
H     0.0074376   -6.1580330    1.7995532 
H    -0.6715095   -5.1814596   -0.3907772 
