9
0 1
Se    1.5870097   -0.4373863    0.0000000 
F     1.4891173    1.3033750    0.0000000 
F     3.3469608   -0.3903202    0.0000000 
C    -1.0591600   -0.0825402    0.6669066 
H    -1.2914312   -0.9712038    1.2330568 
H    -0.8609526    0.8159098    1.2297114 
C    -1.0591600   -0.0825402   -0.6669066 
H    -0.8609526    0.8159098   -1.2297114 
H    -1.2914312   -0.9712038   -1.2330568 
