10
0 1
C     0.2714569    2.6420091    0.2317763 
S    -0.0663523    2.1832524   -1.4748693 
C     0.3635203    3.7636467   -2.0176545 
H     0.3094942    3.9635793   -3.0755689 
C     0.7352064    4.6484658   -1.0833202 
H     1.0242199    5.6664226   -1.2789164 
C     0.7099758    4.1020710    0.2623058 
O     0.9881213    4.6719016    1.2905396 
H     1.0582543    2.0109447    0.6315251 
H    -0.6171634    2.4971676    0.8360061 
