10
0 1
C     0.3052679    2.5566231    0.4082030 
Te   -0.1116393    1.9592319   -1.5951377 
C     0.1939330    4.0026891   -1.9169768 
H     0.1055931    4.4321778   -2.9031088 
C     0.5097104    4.7271280   -0.8409621 
H     0.7034269    5.7891924   -0.8668005 
C     0.6077078    4.0458516    0.4463914 
O     0.9003462    4.5890111    1.4876533 
H     1.1522582    2.0020003    0.7963937 
H    -0.5566695    2.3531650    1.0337658 
