11
0 1
S     1.1565462    0.7795098   -2.1683903 
O     0.0385912    0.5743613   -3.0219854 
O     1.2327399    1.9687152   -1.3922797 
O     2.3470726    0.0278243   -2.3965608 
Se    0.4240425   -0.8649704   -0.2158755 
H     1.5506696   -0.3835751    0.6089187 
O    -0.8490446    0.0893511    0.5654595 
C    -1.3658384   -0.4583720    1.7742995 
H    -2.1831012    0.1945357    2.0613759 
H    -0.6105436   -0.4587330    2.5583676 
H    -1.7411342   -1.4686469    1.6266705 
