7
0 1
S    -0.0789969    0.3558405   -1.2379683 
O    -1.0149549   -0.4948575   -1.8891667 
O    -0.5130572    1.6062388   -0.7173887 
O     1.3167278    0.1688639   -1.5044423 
Te    0.3762961   -1.0901200    1.0963642 
H     1.2569762    0.2021676    1.6435741 
Cl   -1.3429911   -0.7481334    2.6090278 
