9
0 1
C     0.6626650    1.2682187    0.0000000 
C     1.5797406    0.2715584    0.0000000 
C    -0.7125895    0.8758779    0.0000000 
C    -0.9835333   -0.4479282    0.0000000 
Te    0.6916660   -1.6182513    0.0000000 
H     0.9362640    2.3164600    0.0000000 
H     2.6447965    0.4463202    0.0000000 
H    -1.5026118    1.6155896    0.0000000 
H    -1.9459524   -0.9271641    0.0000000 
