9
0 1
N     3.4301859    0.4245077   -2.1251988 
S     1.9134672    0.1784963   -1.4199856 
C     2.5579025    0.7166737    0.0702133 
H     1.9022367    0.7417952    0.9200610 
C     3.8516517    1.0596777    0.0157738 
H     4.4322833    1.4200593    0.8452568 
C     4.4366593    0.8999912   -1.3087993 
H     3.5973001    0.2344067   -3.0958683 
O     5.5700050    1.1218853   -1.6839977 
