9
0 1
S     2.2254810    0.5829066    0.0000000 
C     2.3842195   -0.5702510   -1.3672300 
C     2.3842195   -0.5702510    1.3672300 
H     2.2889639    0.0011713   -2.2843130 
H     3.3544290   -1.0578952   -1.3511653 
H     1.5908517   -1.3120794   -1.3358953 
H     2.2889639    0.0011713    2.2843130 
H     1.5908517   -1.3120794    1.3358953 
H     3.3544290   -1.0578952    1.3511653 
