9
0 1
N     3.5491261    0.4182596   -2.1262124 
S     2.0191731    0.2023418   -1.4356543 
C     2.6626169    0.7237037    0.0610637 
H     2.0001223    0.7632485    0.9050890 
C     3.9641199    1.0385098    0.0194705 
H     4.5444567    1.3851330    0.8550308 
C     4.5579504    0.8685018   -1.2998188 
H     3.7220574    0.2261871   -3.0954555 
O     5.7002941    1.0654176   -1.6629456 
