30
0 1
C     0.2714569    2.6420091    0.2317763 
S    -0.0663523    2.1832524   -1.4748693 
C     0.3635203    3.7636467   -2.0176545 
H     0.3094942    3.9635793   -3.0755689 
C     0.7352064    4.6484658   -1.0833202 
H     1.0242199    5.6664226   -1.2789164 
C     0.7099758    4.1020710    0.2623058 
O     0.9881213    4.6719016    1.2905396 
H     1.0582543    2.0109447    0.6315251 
H    -0.6171634    2.4971676    0.8360061 
N    -0.3986104   -0.5526277    0.1772806 
H    -2.1184339   -0.8219019    1.2997964 
H    -2.0144991   -0.9178101   -1.0755245 
H    -0.4473785   -0.8803829   -1.8660748 
H    -0.6736156   -0.4681975    2.2348920 
H     1.4285934   -0.3936168    1.1416647 
H     1.5161629   -0.4276560   -0.6150957 
C    -0.9755680   -1.2275542   -0.9799860 
C    -1.0546220   -1.0344844    1.3867231 
C     1.0228127   -0.8694778    0.2498989 
C    -0.7922240   -2.5515731    1.5543138 
C    -0.8503111   -2.7603744   -0.8082067 
C     1.2164265   -2.4043121    0.2992953 
N    -0.0798066   -3.0624853    0.3908598 
H    -1.7226378   -3.1059976    1.6598240 
H    -1.8270519   -3.2296585   -0.7078098 
H    -0.3528097   -3.2165689   -1.6618423 
H     1.8163910   -2.7011902    1.1572335 
H     1.7175553   -2.7695633   -0.5949210 
H    -0.1871067   -2.7540281    2.4358549 
