10
0 1
C    -2.0059822    2.6779819    0.0354039 
Te   -0.1692308    3.7364978   -0.2008175 
C    -1.4700322    5.3620714   -0.0152173 
H    -1.1067363    6.3774852   -0.0608155 
C    -2.7612262    5.0692199    0.1621227 
H    -3.5364697    5.8126956    0.2745152 
C    -3.1479335    3.6630580    0.2142183 
O    -4.2816049    3.2716824    0.3852734 
H    -1.9472172    2.0248299    0.8984794 
H    -2.1845249    2.0653406   -0.8407862 
