11
0 1
C     2.2448997   -1.9986221    1.1906300 
C     1.0076326   -1.3859205    1.1428066 
C     2.8740873   -2.3107988    0.0000000 
C     1.0076326   -1.3859205   -1.1428066 
C     2.2448997   -1.9986221   -1.1906300 
N     0.4022784   -1.0855729    0.0000000 
H     0.4760626   -1.1225821   -2.0454502 
H     2.6993149   -2.2236135    2.1412756 
H     0.4760626   -1.1225821    2.0454502 
H     3.8400196   -2.7907409    0.0000000 
H     2.6993149   -2.2236135   -2.1412756 
