7
0 1
Te   -0.2251045    0.3661121   -1.1366294 
O    -1.2813364   -0.6628643   -2.1213541 
O    -0.6502368    2.0491734   -0.7674333 
O     1.4950877   -0.1384411   -0.8905879 
S     0.3351966   -0.8813436    1.0756784 
H     0.9274188    0.2584437    1.4555776 
F    -0.6010255   -0.9910800    2.3847487 
