44
0 1
Te   -0.9214694    0.9953028    0.2634010 
O     0.0634017    5.0214491   -0.2529353 
N    -1.1144823    3.1004455    0.1992354 
C     1.0305051    1.5487029   -0.2388283 
C     2.1292157    0.7265474   -0.4423263 
H     2.0487744   -0.3423044   -0.3497531 
C     1.1668231    2.9265220   -0.3612013 
C    -0.0044197    3.8081321   -0.1429727 
C     3.3490967    1.2896376   -0.7692438 
H     4.2010364    0.6461164   -0.9283086 
C    -2.3671031    3.6915905    0.4127197 
C     3.4883024    2.6651716   -0.8930851 
H     4.4457380    3.0913652   -1.1477794 
C     2.3959564    3.4805076   -0.6876264 
H     2.4552904    4.5545558   -0.7710021 
C    -2.7952524    4.8040258   -0.3090515 
H    -2.1316753    5.2572667   -1.0225080 
C    -3.2312175    3.1248651    1.3454074 
H    -2.8962962    2.2829896    1.9331455 
C    -4.4950793    3.6467146    1.5481652 
H    -5.1462489    3.1921127    2.2786640 
C    -4.0570032    5.3227312   -0.0929916 
H    -4.3727244    6.1856713   -0.6590170 
C    -4.9160612    4.7512755    0.8309889 
H    -5.8991958    5.1645622    0.9914571 
H     2.6978151   -5.4105884    1.4579508 
H     1.8774679   -5.4880760   -2.1103297 
C     1.2698858   -5.9981777   -1.3626751 
C     1.8298255   -5.9454506    1.0720869 
C    -0.1347924   -2.0687476   -1.0098431 
C     0.3745630   -2.0208756    1.2066988 
C     0.3109354   -3.3591895   -1.1420749 
C     0.8454252   -3.3090460    1.1842357 
C     0.8285814   -4.0315937   -0.0214243 
N    -0.1088370   -1.3935513    0.1369486 
N     1.2864184   -5.3007104   -0.0992275 
H     0.3874270   -1.4496783    2.1234054 
H    -0.5292318   -1.5359173   -1.8626194 
H     0.2586580   -3.8327919   -2.1061407 
H     1.2235954   -3.7421370    2.0930198 
H     1.6708501   -6.9936753   -1.2224362 
H     2.1391272   -6.9494650    0.8118217 
H     1.0895754   -6.0141239    1.8687192 
H     0.2567991   -6.0921609   -1.7526701 
