10
0 1
C    -0.0965548   -0.7425178    0.5725928 
S     1.0416358   -0.7280703   -0.8229058 
C     0.5550120    0.8734192   -1.2103866 
H     1.0157003    1.3503860   -2.0627978 
C    -0.3775701    1.4542737   -0.4304537 
H    -0.7685758    2.4493718   -0.5638818 
C    -0.8216350    0.5875910    0.6401078 
O    -1.6527603    0.8496441    1.4903484 
H     0.4693595   -0.9492665    1.4749776 
H    -0.7782431   -1.5778434    0.4509544 
