11
-1 1
C    -0.1179590   -0.7819818    0.6222455 
S     1.0474427   -0.8658153   -0.7447448 
C     0.5964188    0.7458539   -1.1825652 
H     1.0770095    1.1947747   -2.0423259 
C    -0.3363962    1.3834429   -0.4377945 
H    -0.7019622    2.3843059   -0.6054829 
C    -0.8140726    0.5624963    0.6464807 
O    -1.6536418    0.8650833    1.4834283 
H     0.4277034   -0.9724812    1.5396488 
H    -0.8208491   -1.6004149    0.5136310 
F     1.2963065   -2.9152636    0.2074789 
