7
0 1
S    -0.2206404    1.2277209    0.0000000 
O     0.3674855    1.6462902   -1.2274119 
O    -1.5686101    0.7700002    0.0000000 
O     0.3674855    1.6462902    1.2274119 
Te    1.0236775   -1.3763823    0.0000000 
H     0.0133307   -1.9583512    1.1715385 
H     0.0133307   -1.9583512   -1.1715385 
