8
0 1
Se    0.0895990    0.4172317   -1.7269050 
O    -0.9357147   -0.3989275   -2.6291250 
O    -0.1050860    1.9802222   -1.4996804 
O     1.5897444   -0.1894107   -1.5526819 
Te    0.4204461   -0.8984637    0.7190607 
H     1.2114447    0.4929336    1.1247595 
N    -0.7549053   -0.7047506    2.3367427 
C    -1.5155282   -0.6988349    3.2278294 
