9
0 1
N    -3.3625040    1.4465870    0.0000000 
Se   -1.9224531    0.2885678    0.0000000 
C    -0.9093553    1.8526528    0.0000000 
H     0.1607237    1.7599481    0.0000000 
C    -1.6366433    2.9698458    0.0000000 
H    -1.2222727    3.9631577    0.0000000 
C    -3.0906190    2.7888255    0.0000000 
H    -4.3163358    1.1346198    0.0000000 
O    -3.9414137    3.6581520    0.0000000 
