7
0 1
Se    1.4967603   -0.2871786    0.0000000 
Br    1.4034804    2.0228925    0.0000000 
Br    3.7894895   -0.6477109    0.0000000 
C    -1.6696840   -0.2745498    0.5976758 
C    -1.6696840   -0.2745498   -0.5976758 
H    -1.6751810   -0.2694517    1.6579614 
H    -1.6751810   -0.2694517   -1.6579614 
