7
0 1
Te    1.4076831   -0.4137765    0.0000000 
Cl    1.2896834    1.9144171    0.0000000 
Cl    3.7534097   -0.5564715    0.0000000 
C    -1.6007993   -0.2420685    0.5989333 
C    -1.6007993   -0.2420685   -0.5989333 
H    -1.6245888   -0.2300160    1.6593918 
H    -1.6245888   -0.2300160   -1.6593918 
