9
0 1
N    -0.9607642   -1.1342027    0.0000000 
Te    1.1889494   -1.4760726    0.0000000 
C     0.9888480    0.5695863    0.0000000 
H     1.8984679    1.1477268    0.0000000 
C    -0.2498341    1.0670943    0.0000000 
H    -0.4651070    2.1257891    0.0000000 
C    -1.3906209    0.1353718    0.0000000 
H    -1.6943071   -1.8231423    0.0000000 
O    -2.5730557    0.5100268    0.0000000 
