10
0 1
C     0.7361318   -0.1191948   -0.6010627 
C     0.7361318   -0.1191948    0.6010627 
C     0.7671797   -0.1037275   -2.0509095 
H     1.7920743   -0.0678409   -2.4125514 
H     0.2934625   -0.9920804   -2.4605590 
H     0.2406652    0.7650336   -2.4383061 
C     0.7671797   -0.1037275    2.0509095 
H     0.2934625   -0.9920804    2.4605590 
H     1.7920743   -0.0678409    2.4125514 
H     0.2406652    0.7650336    2.4383061 
