9
0 1
O     0.1463993    0.0982962    0.0000000 
C    -0.6565899    0.0437954   -1.0931662 
C    -1.9452510   -0.0443745   -0.7133902 
C    -1.9452510   -0.0443745    0.7133902 
C    -0.6565899    0.0437954    1.0931662 
H    -0.1586375    0.0777606   -2.0415955 
H    -2.7956300   -0.1027159   -1.3648827 
H    -2.7956300   -0.1027159    1.3648827 
H    -0.1586375    0.0777606    2.0415955 
