7
0 1
Se   -0.1782634    0.3552466   -1.1439155 
O    -1.1574933   -0.5095645   -2.0488590 
O    -0.5083961    1.8777607   -0.8229017 
O     1.3732173   -0.1212488   -1.0264408 
Se    0.2897138   -0.9288754    1.0639240 
H     0.9073178    0.3336740    1.4869627 
F    -0.7260961   -1.0069926    2.4912301 
