7
0 1
Se    0.0000000    0.0000000    1.3446555 
S     0.0000000    0.0000000    4.5841725 
C    -0.0000000    0.0000000    3.0386772 
N    -0.0000000    0.0000000   -1.9615291 
H    -0.4688560   -0.8120824   -2.3353254 
H    -0.4688560    0.8120824   -2.3353254 
H     0.9377120    0.0000000   -2.3353254 
