44
0 1
Se   -0.4226591    1.2649273    0.0932071 
O    -0.0426410    5.2082120   -0.2058351 
N    -0.9159995    3.1020874    0.1077342 
C     1.3103990    1.8981718   -0.3104239 
C     2.4640164    1.1551812   -0.5119778 
H     2.4465267    0.0821517   -0.4483914 
C     1.3462382    3.2827434   -0.3947078 
C     0.0824647    3.9981276   -0.1664562 
C     3.6397492    1.8220541   -0.7980685 
H     4.5406986    1.2496744   -0.9576197 
C    -2.2547814    3.4427677    0.3521525 
C     3.6820061    3.2095280   -0.8827035 
H     4.6119742    3.7075236   -1.1059490 
C     2.5321474    3.9410790   -0.6796013 
H     2.5165730    5.0185463   -0.7336729 
C    -2.8442135    4.5522666   -0.2481817 
H    -2.2551251    5.1843374   -0.8866131 
C    -3.0218742    2.6373690    1.1880407 
H    -2.5663699    1.7899884    1.6764786 
C    -4.3536764    2.9283406    1.4144469 
H    -4.9312058    2.2917987    2.0665926 
C    -4.1739393    4.8377418   -0.0055631 
H    -4.6174794    5.7018919   -0.4754541 
C    -4.9382045    4.0320626    0.8211446 
H    -5.9758947    4.2634049    1.0018007 
H     2.1747667   -5.6851140    1.6187240 
H     1.3447703   -5.7903715   -1.9891983 
C     0.6541787   -6.0945696   -1.2024792 
C     1.2139010   -6.0235442    1.2306342 
C     0.2448123   -1.9234264   -1.1107504 
C     0.7528618   -1.8590312    1.0956733 
C     0.3763000   -3.2902744   -1.1620235 
C     0.9105972   -3.2225312    1.1604184 
C     0.7228874   -3.9943585    0.0024129 
N     0.4294413   -1.1986216   -0.0117557 
N     0.8663240   -5.3414154    0.0087305 
H     0.8933178   -1.2574421    1.9826317 
H    -0.0254633   -1.3737726   -2.0012591 
H     0.2083893   -3.7976734   -2.0955349 
H     1.1735213   -3.6751955    2.1001373 
H     0.8165760   -7.1454048   -0.9992348 
H     1.2846156   -7.0860142    1.0354752 
H     0.4618263   -5.8693251    2.0048685 
H    -0.3623535   -5.9738919   -1.5778488 
