25
0 1
Se   -0.3186809   -0.7164996   -0.1556423 
O    -1.4527471   -3.8069241   -2.3651749 
N    -1.3476388   -2.2041863   -0.7187137 
C     0.7753136   -1.1094113   -1.6373804 
C     1.9263275   -0.4489972   -2.0347062 
H     2.2986675    0.3927575   -1.4795581 
C     0.3071483   -2.2003683   -2.3534851 
C    -0.9160255   -2.8437962   -1.8526665 
C     2.5914792   -0.8958117   -3.1598661 
H     3.4882652   -0.3867013   -3.4778253 
C    -2.5021789   -2.5414884    0.0054961 
C     2.1265004   -1.9885029   -3.8842713 
H     2.6627142   -2.3208303   -4.7585679 
C     0.9832568   -2.6433327   -3.4793045 
H     0.5900884   -3.4969421   -4.0092294 
C    -2.5321245   -2.3265118    1.3792242 
H    -1.6520139   -1.9522918    1.8789829 
C    -3.6292684   -3.0575777   -0.6271485 
H    -3.6079985   -3.2356079   -1.6865131 
C    -4.7571657   -3.3498410    0.1151579 
H    -5.6238368   -3.7518310   -0.3861553 
C    -3.6704376   -2.6128314    2.1086406 
H    -3.6747415   -2.4408527    3.1736589 
C    -4.7895276   -3.1286817    1.4814317 
H    -5.6763222   -3.3582228    2.0503662 
