7
0 1
Te   -0.2506495    0.3925714   -1.2630030 
O    -1.2406844   -0.5377947   -2.4078136 
O    -0.5003445    2.1366608   -1.0310433 
O     1.4591849   -0.2147640   -0.9922606 
Te    0.4375517   -1.0368373    1.0810980 
H     1.0171794    0.4239484    1.5943575 
Cl   -0.9222376   -1.1637846    3.0186649 
