26
0 1
S     0.2049502   -0.6590442    0.0077549 
C    -2.3172893    0.1912759    0.3087615 
C    -2.6765056    2.6388820    0.2542506 
C    -0.5667558    1.8615892    0.0029268 
C    -3.2023678    1.3393556    0.3794167 
C     0.8615312    1.8704753   -0.1912403 
C     1.6709762    2.9865127   -0.3495488 
C    -3.5615594    3.7229588    0.3273338 
C     1.4038991    0.5855165   -0.2110792 
C     3.0236641    2.8070698   -0.5278939 
C    -4.5699054    1.1427617    0.5709401 
C    -4.9030906    3.5133633    0.5159414 
C     2.7686168    0.4034780   -0.3923468 
C     3.5615385    1.5213772   -0.5485336 
C    -5.4167369    2.2191679    0.6391190 
N    -1.3438338    2.8882385    0.0644423 
N    -0.9951313    0.5617633    0.1152958 
O    -2.6175683   -0.9811338    0.3985237 
H     1.2199493    3.9656873   -0.3292236 
H    -3.1531589    4.7159303    0.2308855 
H    -4.9288167    0.1299619    0.6617528 
H     3.6707620    3.6601231   -0.6529835 
H     3.1855059   -0.5881434   -0.4107231 
H    -5.5714690    4.3587858    0.5700796 
H     4.6233534    1.3933378   -0.6905777 
H    -6.4742878    2.0705985    0.7870004 
