11
0 1
C     1.9868176   -3.5557410   -1.2615758 
C     2.4775569   -3.4452519    0.9566369 
C     2.7071222   -4.8070017    1.0270216 
C     2.5627352   -5.5599585   -0.1229539 
C     2.1946813   -4.9224357   -1.2926659 
H     1.6890248   -3.0232721   -2.1537691 
H     2.5739400   -2.8246005    1.8362970 
H     2.9881318   -5.2616230    1.9629985 
H     2.7309512   -6.6253493   -0.1070811 
H     2.0658733   -5.4693814   -2.2124095 
N     2.1268953   -2.8252739   -0.1627734 
