7
0 1
S    -0.0776352    0.3449309   -1.2454306 
O    -1.0091426   -0.5448879   -1.8503574 
O    -0.5469642    1.5553265   -0.6630480 
O     1.3027185    0.2414325   -1.6029010 
Te    0.4368776   -1.1228398    1.1047080 
H     1.3553470    0.1406835    1.6579534 
Br   -1.4612011   -0.6146456    2.5990756 
