10
-1 1
C     0.6758198    1.3066328    0.0000000 
C     1.6071566    0.3241755    0.0000000 
C    -0.6938114    0.8979235    0.0000000 
C    -0.9500862   -0.4283562    0.0000000 
Te    0.7483606   -1.5676346    0.0000000 
H     0.9392173    2.3567007    0.0000000 
H     2.6705336    0.5020686    0.0000000 
H    -1.4934767    1.6264681    0.0000000 
H    -1.9086430   -0.9160325    0.0000000 
I    -1.5950706   -4.1019458    0.0000000 
