7
0 1
Se    0.3012238   -0.8514445   -0.2033525 
H     1.4386909   -0.3020882    0.5645174 
O    -0.9916220    0.0235226    0.6335058 
C    -1.3841844   -0.5279879    1.8901406 
H    -2.2323454    0.0663701    2.2112054 
H    -0.5825745   -0.4408814    2.6210248 
H    -1.6836823   -1.5688382    1.7914458 
