16
0 1
C -3.9877270000 -0.1068270000 -1.0079500000
I -2.1683160000 -0.3027850000 0.0877940000
H -4.5399870000 -1.0351190000 -0.9130800000
H -4.5548300000 0.7162480000 -0.5877370000
H -3.7484200000 0.0868210000 -2.0476460000
P 0.7411810000 2.3865610000 -0.0243940000
H -0.0153520000 2.6168850000 1.1365750000
H -0.1562810000 2.8505330000 -0.9997740000
H 1.6583440000 -2.8202180000 -0.6432480000
H 3.4898550000 -2.1943200000 0.2845920000
H 3.2720430000 -2.0752280000 -1.8472420000
H 1.6043260000 3.4958800000 0.0233300000
Pd 1.6371370000 0.2989590000 -0.2657530000
P 2.5667430000 -1.7498460000 -0.6756120000
H 2.1489190000 0.8048970000 -1.6302940000
Cl 0.8683140000 -0.5329810000 1.8437570000
