10
0 1
C -2.7621560000 -0.6929680000 0.0061720000
I -0.8152540000 0.1731320000 -0.0018950000
H -3.2570690000 -0.4104880000 0.9285560000
H -2.6606400000 -1.7706000000 -0.0559060000
H -3.3078740000 -0.3131610000 -0.8502450000
O 2.2392700000 0.9234920000 0.0073920000
P 2.7986420000 -0.4541500000 -0.0004470000
H 2.5355710000 -1.2354000000 -1.1458810000
H 2.3744000000 -1.3134580000 1.0351400000
H 4.2032100000 -0.5507630000 0.0993200000
