10
0 1
C 1.0632130000 2.3941120000 0.0000000000
I 0.0000000000 0.5496010000 0.0000000000
H 0.7861140000 2.9448630000 0.8915820000
H 2.1251120000 2.1764130000 0.0000000000
H 0.7861140000 2.9448630000 -0.8915820000
H -0.0745750000 -3.8631910000 -0.8945050000
H -0.0745750000 -3.8631910000 0.8945050000
F -1.1654880000 -2.4182270000 0.0000000000
H 0.8451640000 -2.6159770000 0.0000000000
C -0.0472070000 -3.2422100000 0.0000000000
