15
0 1
N 0.0000000000 0.0000000000 4.0966500000
C 0.0000000000 0.0000000000 5.2389330000
H 0.0000000000 0.0000000000 6.3063400000
I 0.0000000000 0.0000000000 0.8379080000
C 0.0000000000 0.0000000000 -1.2574380000
C 0.0000000000 1.2035120000 -1.9485380000
C 0.0000000000 1.1986190000 -3.3357790000
C 0.0000000000 0.0000000000 -4.0323620000
C 0.0000000000 -1.1986190000 -3.3357790000
C 0.0000000000 -1.2035120000 -1.9485380000
H 0.0000000000 2.1411600000 -1.4086920000
H 0.0000000000 2.1394520000 -3.8714410000
H 0.0000000000 0.0000000000 -5.1147180000
H 0.0000000000 -2.1394520000 -3.8714410000
H 0.0000000000 -2.1411600000 -1.4086920000
