13
0 1
N 0.0000000000 0.0000000000 3.7165030000
C 0.0000000000 0.0000000000 4.8572580000
H 0.0000000000 0.0000000000 5.9251570000
N 0.0000000000 0.0000000000 -1.1772320000
O 0.0000000000 2.2804630000 -1.5832080000
O 0.0000000000 -2.2804630000 -1.5832080000
C 0.0000000000 -1.1447450000 -1.9704770000
C 0.0000000000 -0.6615120000 -3.3922010000
C 0.0000000000 0.6615120000 -3.3922010000
H 0.0000000000 1.3506670000 -4.2223800000
H 0.0000000000 -1.3506670000 -4.2223800000
C 0.0000000000 1.1447450000 -1.9704770000
I 0.0000000000 0.0000000000 0.8544270000
