16
0 1
N -0.0042480000 4.2588800000 0.0000000000
H 0.4629130000 4.6294650000 0.8161270000
H 0.4629130000 4.6294650000 -0.8161270000
H -0.9500650000 4.6153870000 0.0000000000
I 0.0025910000 1.0821150000 0.0000000000
C 0.0000000000 -1.0170150000 0.0000000000
C 1.2017850000 -1.7116880000 0.0000000000
C 1.1955830000 -3.0989820000 0.0000000000
C -0.0039010000 -3.7941150000 0.0000000000
C -1.2014400000 -3.0956240000 0.0000000000
C -1.2037160000 -1.7083320000 0.0000000000
H 2.1407550000 -1.1737560000 0.0000000000
H 2.1356960000 -3.6360050000 0.0000000000
H -0.0054300000 -4.8764950000 0.0000000000
H -2.1430490000 -3.6300140000 0.0000000000
H -2.1411810000 -1.1677790000 0.0000000000
