14
0 1
N -0.0022070000 -3.7799590000 0.0000000000
H 0.4674270000 -4.1440020000 0.8181380000
H 0.4674270000 -4.1440020000 -0.8181380000
H -0.9496940000 -4.1331820000 0.0000000000
I 0.0015790000 -1.0859900000 0.0000000000
C 1.1396820000 1.7675990000 0.0000000000
N 0.0000000000 0.9727220000 0.0000000000
O 2.2785680000 1.3838840000 0.0000000000
O -2.2794480000 1.3788760000 0.0000000000
C -1.1413930000 1.7651090000 0.0000000000
C -0.6638900000 3.1901120000 0.0000000000
C 0.6589990000 3.1915700000 0.0000000000
H 1.3480360000 4.0219530000 0.0000000000
H -1.3547630000 4.0189660000 0.0000000000
