10
0 1
I 0.0000000000 0.0000000000 1.4419950000
C 0.0000000000 1.1506450000 -1.3620180000
N 0.0000000000 0.0000000000 -0.5703330000
O 0.0000000000 2.2819510000 -0.9688680000
O 0.0000000000 -2.2819510000 -0.9688680000
C 0.0000000000 -1.1506450000 -1.3620180000
C 0.0000000000 -0.6617750000 -2.7803190000
C 0.0000000000 0.6617750000 -2.7803190000
H 0.0000000000 1.3493370000 -3.6117420000
H 0.0000000000 -1.3493370000 -3.6117420000
