15
0 1
P 0.0000000000 0.0000000000 4.1984380000
C 0.0000000000 0.0000000000 5.7235590000
H 0.0000000000 0.0000000000 6.7952430000
I 0.0000000000 0.0000000000 0.4348140000
C 0.0000000000 0.0000000000 -1.6608990000
C 0.0000000000 1.2055430000 -2.3462440000
C 0.0000000000 1.1992220000 -3.7335170000
C 0.0000000000 0.0000000000 -4.4290030000
C 0.0000000000 -1.1992220000 -3.7335170000
C 0.0000000000 -1.2055430000 -2.3462440000
H 0.0000000000 2.1425810000 -1.8058040000
H 0.0000000000 2.1397220000 -4.2694580000
H 0.0000000000 0.0000000000 -5.5112630000
H 0.0000000000 -2.1397220000 -4.2694580000
H 0.0000000000 -2.1425810000 -1.8058040000
