13
0 1
P 0.0000000000 0.0000000000 3.9693450000
C 0.0000000000 0.0000000000 5.4927080000
H 0.0000000000 0.0000000000 6.5642140000
N 0.0000000000 0.0000000000 -1.5437100000
O 0.0000000000 2.2815140000 -1.9429860000
O 0.0000000000 -2.2815140000 -1.9429860000
C 0.0000000000 -1.1496540000 -2.3357680000
C 0.0000000000 -0.6617650000 -3.7546140000
C 0.0000000000 0.6617650000 -3.7546140000
H 0.0000000000 1.3493430000 -4.5860220000
H 0.0000000000 -1.3493430000 -4.5860220000
C 0.0000000000 1.1496540000 -2.3357680000
I 0.0000000000 0.0000000000 0.4733910000
