11
1 1
O -1.5214833780 -1.7164884130 0.4950436600
H -1.0623636000 -2.4473338370 0.9425231800
H -0.9262198850 -0.8362095440 0.3715908330
H -1.9464417140 -2.0270109220 -0.3223613880
H 1.2973390680 3.0399239970 1.2416287030
H 0.2939403900 3.5091781250 -0.1807350780
H -0.4686394920 2.7058448330 1.2348233670
C 0.4277971870 2.8106063490 0.6368815270
O 0.6484336970 1.4547808040 0.0341166350
C 1.6899947650 1.3183510840 -0.7438873060
N 2.5908432650 1.1412533790 -1.4364442360
