7
-1 1
  H    0.510012277   1.894428823   1.410365802
  H   -0.493386401   2.363682951  -0.011997979
  H   -1.255966283   1.560349659   1.403560466
  C   -0.359529604   1.665111175   0.805618626
  O   -0.138893094   0.309285630   0.202853734
  C    0.902667974   0.172855910  -0.575150207
  N    1.803516474  -0.004241795  -1.267707137
