11
1 1
O -1.5214833780 -1.7164884130 0.4950436600
H -1.0623636000 -2.4473338370 0.9425231800
H -0.9262198850 -0.8362095440 0.3715908330
H -1.9464417140 -2.0270109220 -0.3223613880
H 0.3525469190 1.6653297880 1.4441132220
H -0.6508517590 2.1345839160 0.0217494410
H -1.4134316410 1.3312506240 1.4373078860
C -0.5169949620 1.4360121400 0.8393660460
O -0.2963584520 0.0801865950 0.2366011540
C 0.7452026160 -0.0562431250 -0.5414027870
N 1.6460511160 -0.2333408300 -1.2339597170
