11
-1 1
  O   -1.521483378  -1.716488413   0.495043660
  H   -1.062363600  -2.447333837   0.942523180
  H   -0.926219885  -0.836209544   0.371590833
  H   -1.946441714  -2.027010922  -0.322361388
  H    0.706843975   2.180802616   1.368181527
  H   -0.296554703   2.650056744  -0.054182254
  H   -1.059134585   1.846723452   1.361376191
  C   -0.162697906   1.951484968   0.763434351
  O    0.057938604   0.595659424   0.160669459
  C    1.099499672   0.459229704  -0.617334482
  N    2.000348172   0.282131998  -1.309891412
