11
1 1
O -1.5214833780 -1.7164884130 0.4950436600
H -1.0623636000 -2.4473338370 0.9425231800
H -0.9262198850 -0.8362095440 0.3715908330
H -1.9464417140 -2.0270109220 -0.3223613880
H 0.5100122770 1.8944288230 1.4103658020
H -0.4933864010 2.3636829510 -0.0119979790
H -1.2559662830 1.5603496590 1.4035604660
C -0.3595296040 1.6651111750 0.8056186260
O -0.1388930940 0.3092856300 0.2028537340
C 0.9026679740 0.1728559100 -0.5751502070
N 1.8035164740 -0.0042417950 -1.2677071370
