11
1 1
O -1.5214833780 -1.7164884130 0.4950436600
H -1.0623636000 -2.4473338370 0.9425231800
H -0.9262198850 -0.8362095440 0.3715908330
H -1.9464417140 -2.0270109220 -0.3223613880
H 0.5493786170 1.9517035820 1.4019289470
H -0.4540200610 2.4209577100 -0.0204348340
H -1.2165999430 1.6176244180 1.3951236110
C -0.3201632640 1.7223859340 0.7971817710
O -0.0995267540 0.3665603890 0.1944168790
C 0.9420343140 0.2301306690 -0.5835870620
N 1.8428828140 0.0530329640 -1.2761439920
