12
1 1
N -0.0051567170 0.0274015050 2.6696447320
H -0.0030192970 0.0575135140 1.5941493720
H 0.8229440250 0.4904111350 3.0409765430
H -0.0036771880 -0.9460258930 2.9728230750
H -0.8368428380 0.4867760670 3.0374708320
H 0.8776111460 0.0736780400 -3.2715812360
H -0.8648577960 0.0758331690 -3.2748416960
H 0.0034310300 -1.3638224210 -2.6553498390
H 0.0045488940 1.4484632410 -1.3482561330
C 0.0048959520 -0.2801797730 -2.7157597970
C 0.0031513280 0.3478153840 -1.3785010770
O 0.0002905700 -0.2819469610 -0.3317414530
