20
1 1
C -3.1671805750 -0.5882738070 -0.7723061930
C -1.8511080210 -0.7740126630 -1.0504915180
N -1.1343802850 -0.0858284520 -0.0982010410
H -0.0943316370 -0.0164805460 -0.0143755350
C -1.9717626380 0.5053473770 0.7406347610
N -3.2141089720 0.2131090630 0.3491854270
H -4.0526714490 -0.9467033070 -1.2610191260
H -1.3763511580 -1.3309519940 -1.8351761590
H -1.6974913890 1.1108983740 1.5844237440
H -4.0522016350 0.5328996290 0.8084148030
H 3.7039700150 -0.0922980090 -1.6058972180
H 2.1026472040 -0.8727847660 -1.6730718890
H 3.4217289940 -1.5641500380 -0.7058348100
H 3.1982755760 1.1398816150 1.9438639210
H 4.1044715720 1.5351810710 0.4675206620
C 2.9503520190 -0.6363234120 -1.0369828440
C 2.5293823500 0.1502996370 0.1682523490
O 1.3500786340 0.3129721650 0.4525892360
C 3.6085519510 0.7365461860 1.0240031740
H 4.3731577410 -0.0091787620 1.2418661190
