9
0 1
H 3.7764022620 0.0070326730 0.3504247590
H 2.5934747340 -1.2354842080 0.5381414100
H 1.8829754580 2.2550400420 -1.2734448080
H 1.7247381580 2.6635306250 0.4309980090
H 3.2991489110 2.1717355080 -0.2134818750
O 0.6469589860 0.2283304280 0.0056633220
C 1.8334688600 0.5834126080 0.0311025880
N 2.8136411400 -0.2763902950 0.3286171940
C 2.2278810060 2.0020101940 -0.2722688940
