17
1 1
N -2.0411234960 1.3282854950 -2.0890307470
H -1.4599243760 2.1567686990 -2.1984120990
H -2.1525293340 0.8782293280 -2.9953992630
H -2.9575319850 1.6080534950 -1.7449301480
H -1.5681409650 0.6352383850 -1.3799556200
H 2.7198965860 0.4288488360 0.3155065160
H 1.8543386000 1.2166402840 1.6619031450
H 2.3319589990 2.1687572530 0.2299605140
H -1.0257770790 -2.0102269310 1.6989179080
H -0.1605364480 -2.7981070280 0.3525528660
H 0.5836498050 -2.7367275970 1.9766202840
O 0.7385482640 0.9611363330 -0.0878163920
C 0.0760091550 -0.1530081330 0.1382753470
O -0.9959962680 -0.3620487320 -0.4285143820
O 0.6375809080 -0.9762362460 0.9810676620
C -0.0533815710 -2.2242525220 1.2673363490
C 2.0066025820 1.1999936990 0.5876351870
