16
1 1
N -1.1710552390 0.8831298790 -0.1906524450
C -1.7042904070 -0.3346253440 -0.1917924590
N -0.9211949940 -1.3956639200 -0.0392111690
N -3.0216996430 -0.4888140650 -0.3457690170
H -0.1679748610 1.0141211780 -0.0743315600
H -1.7475256180 1.6971432820 -0.3047535740
H 0.0823493060 -1.2832355980 0.0783069460
H -1.3018230630 -2.3247669490 -0.0369225870
H -3.6307553060 0.3006986030 -0.4623912350
H -3.4441356610 -1.3996473460 -0.3492459110
H 3.8705684780 2.3759826300 1.2334346950
H 4.0839803270 2.2838839960 -0.5027706370
H 4.8036893380 0.9894807280 0.5380115560
C 3.9744299050 1.6780226980 0.3995645960
N 2.7017309430 0.9780995240 0.2802493590
O 2.7665255780 -0.2224752800 0.3518792080
