22
1 1
C 0.9290485100 -1.1909295600 -2.1407039080
N -0.1070115140 -0.1834775420 -1.7758673370
H -0.0747811410 -0.0505088390 -0.7434495580
C 0.1749202010 1.1463168690 -2.3910041610
C -1.4816616110 -0.6606926680 -2.1059051920
H 1.9030081410 -0.8211622260 -1.8359949440
H 0.9124363700 -1.3457687330 -3.2156950950
H 0.7094612260 -2.1231565720 -1.6299212650
H 1.1623731800 1.4740139660 -2.0822950850
H -0.5715879390 1.8548064110 -2.0476089330
H 0.1341223550 1.0533322500 -3.4724763660
H -1.6581742630 -1.6026963270 -1.5967828930
H -1.5619870080 -0.7967956590 -3.1805740810
H -2.1985929000 0.0799964070 -1.7674973330
H -1.1661780390 1.4660278340 2.8004516190
H 1.6186924600 -1.1738408380 1.6509901160
H 1.9726570440 -0.0874896960 3.0166131050
H 0.8226167320 -1.3905143900 3.2290697550
O -0.3020973080 0.4142643060 0.9499385300
C 0.0907116510 0.2474997060 2.0948816500
O -0.4554110990 0.8890273480 3.1172287920
C 1.1990913240 -0.6636558280 2.5105510030
