22
1 1
C 0.9290485100 -1.1909295600 -2.1407039080
N -0.1070115140 -0.1834775420 -1.7758673370
H -0.0747811410 -0.0505088390 -0.7434495580
C 0.1749202010 1.1463168690 -2.3910041610
C -1.4816616110 -0.6606926680 -2.1059051920
H 1.9030081410 -0.8211622260 -1.8359949440
H 0.9124363700 -1.3457687330 -3.2156950950
H 0.7094612260 -2.1231565720 -1.6299212650
H 1.1623731800 1.4740139660 -2.0822950850
H -0.5715879390 1.8548064110 -2.0476089330
H 0.1341223550 1.0533322500 -3.4724763660
H -1.6581742630 -1.6026963270 -1.5967828930
H -1.5619870080 -0.7967956590 -3.1805740810
H -2.1985929000 0.0799964070 -1.7674973330
H -1.3718450480 1.8865368690 4.3325646510
H 1.4130254510 -0.7533318020 3.1831031480
H 1.7669900350 0.3330193390 4.5487261370
H 0.6169497230 -0.9700053540 4.7611827870
O -0.5077643170 0.8347733410 2.4820515620
C -0.1149553580 0.6680087410 3.6269946820
O -0.6610781080 1.3095363830 4.6493418240
C 0.9934243150 -0.2431467930 4.0426640350
