9
0 1
H 2.8810930960 1.4340755550 2.0223184490
H 3.6096347060 1.0410371790 -0.5779348390
H 0.2802443830 0.6131636760 2.1502549830
H 1.3815092680 0.0190360350 -1.7802913470
C 2.6514696460 0.8344234190 -0.1364560100
C 2.2682456100 1.0411836540 1.2312887900
C 0.9847789210 0.6473184030 1.3406567100
O 0.5251230790 0.1994890320 0.1169403570
C 1.5763183880 0.3281806870 -0.7706061980
