17
1 1
N -1.7861119230 0.5901298880 -0.0408113530
C -2.0249217120 -0.6967994790 -0.2638875900
N -1.0118105480 -1.5529733260 -0.3235140930
N -3.2784685150 -1.1281486300 -0.4272917350
H -0.8370027900 0.9283771470 0.0839057880
H -2.5366725880 1.2550321580 0.0076975580
H -0.0552864780 -1.2352759950 -0.2014353970
H -1.1691032180 -2.5301002130 -0.4916551970
H -4.0577651140 -0.4966340370 -0.3856927470
H -3.4795635810 -2.0970163860 -0.5967022350
H 5.1902630030 2.7981538470 0.3529578860
H 5.3307370610 1.6962542840 1.7489367020
H 5.8006936970 1.1082747100 0.1314693660
C 5.1397698900 1.7673044050 0.6802707020
N 3.7421542040 1.2895653630 0.4735344220
O 3.5679823180 0.0973321480 0.2736830250
O 2.8405400510 2.1108761520 0.5386599980
