19
1 1
N -1.6804488910 0.7448309150 -0.3351915550
C -2.1904113020 -0.4559734510 -0.0949531850
N -1.3680317660 -1.4503667220 0.2198990270
N -3.5091918760 -0.6642444890 -0.1678016370
H -0.6684545670 0.8584745300 -0.2680495440
H -2.2660370330 1.5227872220 -0.5756705390
H -0.3708336200 -1.2571776330 0.2666445110
H -1.7118619300 -2.3733179440 0.4089573090
H -4.1416512330 0.0779140600 -0.4050205610
H -3.9054860090 -1.5685614460 0.0117863370
H 4.2696823440 -0.2292713660 0.4530670830
H 3.0867548160 -1.4717882470 0.6407837340
H 2.3762555400 2.0187360030 -1.1708024840
H 2.2180182400 2.4272265860 0.5336403330
H 3.7924289930 1.9354314690 -0.1108395510
O 1.1402390680 -0.0079736110 0.1083056460
C 2.3267489420 0.3471085690 0.1337449120
N 3.3069212220 -0.5126943340 0.4312595180
C 2.7211610880 1.7657061550 -0.1696265700
