17
1 1
N -2.0411234960 1.3282854950 -2.0890307470
H -1.4599243760 2.1567686990 -2.1984120990
H -2.1525293340 0.8782293280 -2.9953992630
H -2.9575319850 1.6080534950 -1.7449301480
H -1.5681409650 0.6352383850 -1.3799556200
H 2.6626821160 0.5285775480 0.2203623920
H 1.7971241300 1.3163689960 1.5667590210
H 2.2747445290 2.2684859650 0.1348163900
H -1.0829915490 -1.9104982190 1.6037737840
H -0.2177509180 -2.6983783160 0.2574087420
H 0.5264353350 -2.6369988850 1.8814761600
O 0.6813337940 1.0608650450 -0.1829605160
C 0.0187946850 -0.0532794210 0.0431312230
O -1.0532107380 -0.2623200200 -0.5236585060
O 0.5803664380 -0.8765075340 0.8859235380
C -0.1105960410 -2.1245238100 1.1721922250
C 1.9493881120 1.2997224110 0.4924910630
