20
1 1
C -3.1671805750 -0.5882738070 -0.7723061930
C -1.8511080210 -0.7740126630 -1.0504915180
N -1.1343802850 -0.0858284520 -0.0982010410
H -0.0943316370 -0.0164805460 -0.0143755350
C -1.9717626380 0.5053473770 0.7406347610
N -3.2141089720 0.2131090630 0.3491854270
H -4.0526714490 -0.9467033070 -1.2610191260
H -1.3763511580 -1.3309519940 -1.8351761590
H -1.6974913890 1.1108983740 1.5844237440
H -4.0522016350 0.5328996290 0.8084148030
H 3.8560132010 -0.0576187770 -1.5567430320
H 2.2546903900 -0.8381055340 -1.6239177030
H 3.5737721800 -1.5294708060 -0.6566806240
H 3.3503187620 1.1745608470 1.9930181070
H 4.2565147580 1.5698603030 0.5166748480
C 3.1023952050 -0.6016441800 -0.9878286580
C 2.6814255360 0.1849788690 0.2174065350
O 1.5021218200 0.3476513970 0.5017434220
C 3.7605951370 0.7712254180 1.0731573600
H 4.5252009270 0.0255004700 1.2910203050
