21
1 1
C 0.4072978760 -1.4256894190 -1.7531343500
N -0.2516689430 -0.1259504590 -1.4302139930
H -0.2256094150 -0.0275594030 -0.3959009080
C 0.5110536420 1.0287498910 -1.9894411190
C -1.6786942420 -0.1072331080 -1.8622841860
H 1.4197720370 -1.4091351640 -1.3635650320
H 0.4214916940 -1.5573991090 -2.8311922260
H -0.1537092330 -2.2293548430 -1.2871464780
H 1.5217149630 1.0020775830 -1.5957375780
H 0.0229843230 1.9505127780 -1.6896133090
H 0.5275440940 0.9510631720 -3.0727017710
H -2.2008489340 -0.9335219560 -1.3904406920
H -1.7235631990 -0.2093690620 -2.9427074320
H -2.1261279390 0.8345070770 -1.5606850420
H 0.4860086610 -0.5213759420 3.9293757220
H 0.5662770340 1.2125545750 3.7627718490
H 1.7746228690 0.1984784440 2.9166829150
H -1.2645754890 0.2800505240 2.2999734030
C 0.7367056130 0.2761858500 3.2251881860
C -0.1888019660 0.2079513620 2.0694767390
O 0.1685726620 0.0801009590 0.9130601510
