23
1 1
C 1.1763632440 -1.2022312740 -1.9199470050
N 0.0904287090 -0.2066236890 -1.7113370330
H -0.0125132840 -0.0482688480 -0.6759750970
C 0.4266764480 1.1129315750 -2.3158567930
C -1.2239552420 -0.7130370860 -2.1974999270
H 2.0990779430 -0.8105616790 -1.5034032770
H 1.2998758340 -1.3828935820 -2.9841789170
H 0.9084234380 -2.1266593900 -1.4180317880
H 1.3634395680 1.4639772080 -1.8949828540
H -0.3655772170 1.8157739890 -2.0803158940
H 0.5212108730 1.0010382490 -3.3924731750
H -1.4499443850 -1.6457504430 -1.6908073050
H -1.1715409940 -0.8748635470 -3.2706453690
H -1.9873449210 0.0221797230 -1.9657622730
H -0.5504003720 0.7058850090 3.6334102320
H -1.5676117980 1.3568764530 2.3963826620
H 0.9745915810 -1.6683645560 1.7973911220
H 2.0170111990 -0.2526210350 1.6920713140
H 1.2452036960 -0.6652860390 3.2294078770
O -0.3608143780 0.3064025750 0.5140483370
C -0.0608528480 0.1834555240 1.7095463440
N -0.7764586270 0.7923233970 2.6591907920
C 1.1124754700 -0.6480606520 2.1514741380
