22
1 1
C 0.9290485100 -1.1909295600 -2.1407039080
N -0.1070115140 -0.1834775420 -1.7758673370
H -0.0747811410 -0.0505088390 -0.7434495580
C 0.1749202010 1.1463168690 -2.3910041610
C -1.4816616110 -0.6606926680 -2.1059051920
H 1.9030081410 -0.8211622260 -1.8359949440
H 0.9124363700 -1.3457687330 -3.2156950950
H 0.7094612260 -2.1231565720 -1.6299212650
H 1.1623731800 1.4740139660 -2.0822950850
H -0.5715879390 1.8548064110 -2.0476089330
H 0.1341223550 1.0533322500 -3.4724763660
H -1.6581742630 -1.6026963270 -1.5967828930
H -1.5619870080 -0.7967956590 -3.1805740810
H -2.1985929000 0.0799964070 -1.7674973330
H -1.1120551420 1.3553675610 2.3972639790
H 1.6728153570 -1.2845011100 1.2478024760
H 2.0267799410 -0.1981499690 2.6134254650
H 0.8767396290 -1.5011746620 2.8258821150
O -0.2479744110 0.3036040330 0.5467508900
C 0.1448345480 0.1368394330 1.6916940100
O -0.4012882020 0.7783670750 2.7140411520
C 1.2532142210 -0.7743161010 2.1073633630
