19
1 1
N -1.9291338220 0.4590374900 -0.6099488500
C -2.1975252290 -0.8370096580 -0.4891621290
N -1.2349225940 -1.6640729620 -0.0945927910
N -3.4175409280 -1.3017950480 -0.7605701690
H -0.9984371160 0.7937123580 -0.3997285280
H -2.6286125180 1.1156537490 -0.9052863950
H -0.3157853100 -1.2939076530 0.1068870820
H -1.3977214250 -2.6491449740 0.0091462800
H -4.1556077830 -0.6899035450 -1.0596053650
H -3.6361804690 -2.2782000560 -0.6745067500
H 5.1198781300 2.2854532700 2.5210426430
H 5.8484197400 1.8924148940 -0.0792106450
H 2.5190294170 1.4645413910 2.6489791770
H 3.6202943020 0.8704137500 -1.2815671530
C 4.8902546800 1.6858011340 0.3622681840
C 4.5070306440 1.8925613690 1.7300129840
C 3.2235639550 1.4986961180 1.8393809040
O 2.7639081130 1.0508667470 0.6156645510
C 3.8151034220 1.1795584020 -0.2718820040
