7
0 1
H 0.8764195930 0.1958838110 -2.5782605390
H -0.8660493480 0.1980389400 -2.5815209990
H 0.0022394770 -1.2416166500 -1.9620291420
H 0.0033573420 1.5706690120 -0.6549354360
C 0.0037044000 -0.1579740020 -2.0224391000
C 0.0019597760 0.4700211550 -0.6851803800
O -0.0009009820 -0.1597411900 0.3615792440
