20
1 1
C 0.4141160980 -1.2783790140 -2.1935868970
N -0.1521856190 -0.1928623240 -1.3385884520
H 0.1711945050 -0.3615224040 -0.3665280250
C 0.3578044890 1.1517106990 -1.7417361100
C -1.6450396350 -0.2292385930 -1.3150391440
H 1.4973069250 -1.2423145960 -2.1365347830
H 0.0896415850 -1.1245198130 -3.2185583490
H 0.0561087940 -2.2360344780 -1.8294654690
H 1.4420633660 1.1448727140 -1.6939477710
H -0.0395059570 1.8944008380 -1.0577822110
H 0.0318426820 1.3623823650 -2.7561124390
H -1.9671086480 -1.2057359930 -0.9676601260
H -2.0175587260 -0.0506438400 -2.3194921380
H -2.0016580360 0.5414974740 -0.6397414990
H -0.6484325930 0.5990846680 3.9503921200
H 0.7681175880 1.5755521900 3.6486197380
H 0.9706067460 -0.2114857320 3.8720407680
C 0.3395344790 0.5839635760 3.4836765710
N 0.1161606400 0.4655074200 2.0517857800
O 0.6609844360 -0.4844362440 1.5351420020
