17
1 1
N -1.7861119230 0.5901298880 -0.0408113530
C -2.0249217120 -0.6967994790 -0.2638875900
N -1.0118105480 -1.5529733260 -0.3235140930
N -3.2784685150 -1.1281486300 -0.4272917350
H -0.8370027900 0.9283771470 0.0839057880
H -2.5366725880 1.2550321580 0.0076975580
H -0.0552864780 -1.2352759950 -0.2014353970
H -1.1691032180 -2.5301002130 -0.4916551970
H -4.0577651140 -0.4966340370 -0.3856927470
H -3.4795635810 -2.0970163860 -0.5967022350
H 2.9990904000 2.0433016270 0.0738777600
H 3.1395644580 0.9414020640 1.4698565760
H 3.6095210940 0.3534224900 -0.1476107600
C 2.9485972870 1.0124521850 0.4011905760
N 1.5509816010 0.5347131430 0.1944542960
O 1.3768097150 -0.6575200720 -0.0053971010
O 0.6493674480 1.3560239320 0.2595798720
