14
1 1
N 2.2311439730 0.2768836030 0.0095976700
H 1.1429330210 0.1448998170 0.0047389360
H 2.6247716140 -0.0114977640 -0.8846337250
H 2.6502323650 -0.2824487620 0.7507129950
H 2.4663616320 1.2550688600 0.1692811200
H -0.4757420220 2.0017014080 0.0013981950
H -1.6707119210 1.0389941020 -0.8959345130
H -1.6761069420 1.0358370130 0.8885380420
H 0.0452776000 -2.0511508880 -0.0063953000
H -1.3558949350 -1.4187268670 -0.8991889270
H -1.3591943580 -1.4235981700 0.8851948490
C -1.0498114360 1.0792282870 -0.0017407300
O -0.1180228420 -0.0122615380 -0.0009235830
C -0.7435586770 -1.3038531710 -0.0055455250
