19
1 1
N -1.9291338220 0.4590374900 -0.6099488500
C -2.1975252290 -0.8370096580 -0.4891621290
N -1.2349225940 -1.6640729620 -0.0945927910
N -3.4175409280 -1.3017950480 -0.7605701690
H -0.9984371160 0.7937123580 -0.3997285280
H -2.6286125180 1.1156537490 -0.9052863950
H -0.3157853100 -1.2939076530 0.1068870820
H -1.3977214250 -2.6491449740 0.0091462800
H -4.1556077830 -0.6899035450 -1.0596053650
H -3.6361804690 -2.2782000560 -0.6745067500
H 2.8810930960 1.4340755550 2.0223184490
H 3.6096347060 1.0410371790 -0.5779348390
H 0.2802443830 0.6131636760 2.1502549830
H 1.3815092680 0.0190360350 -1.7802913470
C 2.6514696460 0.8344234190 -0.1364560100
C 2.2682456100 1.0411836540 1.2312887900
C 0.9847789210 0.6473184030 1.3406567100
O 0.5251230790 0.1994890320 0.1169403570
C 1.5763183880 0.3281806870 -0.7706061980
