19
1 1
N -1.6804488910 0.7448309150 -0.3351915550
C -2.1904113020 -0.4559734510 -0.0949531850
N -1.3680317660 -1.4503667220 0.2198990270
N -3.5091918760 -0.6642444890 -0.1678016370
H -0.6684545670 0.8584745300 -0.2680495440
H -2.2660370330 1.5227872220 -0.5756705390
H -0.3708336200 -1.2571776330 0.2666445110
H -1.7118619300 -2.3733179440 0.4089573090
H -4.1416512330 0.0779140600 -0.4050205610
H -3.9054860090 -1.5685614460 0.0117863370
H 4.1052556500 -0.1505033530 0.4188529750
H 2.9223281220 -1.3930202340 0.6065696260
H 2.2118288460 2.0975040160 -1.2050165920
H 2.0535915460 2.5059945990 0.4994262250
H 3.6280022990 2.0141994820 -0.1450536590
O 0.9758123740 0.0707944020 0.0740915380
C 2.1623222480 0.4258765820 0.0995308040
N 3.1424945280 -0.4339263210 0.3970454100
C 2.5567343940 1.8444741680 -0.2038406780
