20
1 1
C 0.4141160980 -1.2783790140 -2.1935868970
N -0.1521856190 -0.1928623240 -1.3385884520
H 0.1711945050 -0.3615224040 -0.3665280250
C 0.3578044890 1.1517106990 -1.7417361100
C -1.6450396350 -0.2292385930 -1.3150391440
H 1.4973069250 -1.2423145960 -2.1365347830
H 0.0896415850 -1.1245198130 -3.2185583490
H 0.0561087940 -2.2360344780 -1.8294654690
H 1.4420633660 1.1448727140 -1.6939477710
H -0.0395059570 1.8944008380 -1.0577822110
H 0.0318426820 1.3623823650 -2.7561124390
H -1.9671086480 -1.2057359930 -0.9676601260
H -2.0175587260 -0.0506438400 -2.3194921380
H -2.0016580360 0.5414974740 -0.6397414990
H -0.5816430560 0.5823236890 4.2097107600
H 0.8349071240 1.5587912120 3.9079383780
H 1.0373962820 -0.2282467110 4.1313594080
C 0.4063240160 0.5672025970 3.7429952120
N 0.1829501760 0.4487464420 2.3111044200
O 0.7277739720 -0.5011972230 1.7944606420
