22
1 1
C -3.4975422690 0.7108075770 -0.6502861890
C -2.2986841180 1.0809979400 -0.1294429320
N -1.4113665760 0.0585072310 -0.3732084890
H -0.3794725260 0.0186969100 -0.0990465830
C -2.0349059120 -0.9115755190 -1.0215285440
N -3.3056895940 -0.5380685700 -1.2018464820
H -4.4458301560 1.2121479130 -0.6768207370
H -2.0125136690 1.9770156510 0.3868566670
H -1.5967567050 -1.8369815930 -1.3460585220
H -4.0079035160 -1.0888926690 -1.6690464530
C 1.8579005120 1.6468784350 1.3343135120
H 1.5235739630 2.3418300400 0.5652974830
H 2.7669537680 2.0363932520 1.7844566560
H 1.0852925840 1.5911484800 2.0998660050
C 2.0372017320 0.2854497910 0.7195004990
O 1.0970627630 -0.3079187750 0.1614870910
N 3.2440062980 -0.2726132750 0.7902143500
H 3.9802569090 0.2343583260 1.2482749720
C 3.5399885690 -1.5858751470 0.2321500460
H 2.9191686780 -2.3469380760 0.6996461660
H 3.3539521160 -1.5946654990 -0.8395069620
H 4.5847654050 -1.8121459930 0.4166985190
