22
1 1
C -3.4975422690 0.7108075770 -0.6502861890
C -2.2986841180 1.0809979400 -0.1294429320
N -1.4113665760 0.0585072310 -0.3732084890
H -0.3794725260 0.0186969100 -0.0990465830
C -2.0349059120 -0.9115755190 -1.0215285440
N -3.3056895940 -0.5380685700 -1.2018464820
H -4.4458301560 1.2121479130 -0.6768207370
H -2.0125136690 1.9770156510 0.3868566670
H -1.5967567050 -1.8369815930 -1.3460585220
H -4.0079035160 -1.0888926690 -1.6690464530
C 1.7102469830 1.6795400040 1.3082601450
H 1.3759204340 2.3744916080 0.5392441160
H 2.6193002390 2.0690548200 1.7584032890
H 0.9376390550 1.6238100480 2.0738126380
C 1.8895482030 0.3181113600 0.6934471320
O 0.9494092340 -0.2752572060 0.1354337240
N 3.0963527690 -0.2399517060 0.7641609830
H 3.8326033800 0.2670198940 1.2222216050
C 3.3923350400 -1.5532135780 0.2060966790
H 2.7715151490 -2.3142765080 0.6735927990
H 3.2062985870 -1.5620039300 -0.8655603290
H 4.4371118760 -1.7794844240 0.3906451520
