23
1 1
C 1.1763632440 -1.2022312740 -1.9199470050
N 0.0904287090 -0.2066236890 -1.7113370330
H -0.0125132840 -0.0482688480 -0.6759750970
C 0.4266764480 1.1129315750 -2.3158567930
C -1.2239552420 -0.7130370860 -2.1974999270
H 2.0990779430 -0.8105616790 -1.5034032770
H 1.2998758340 -1.3828935820 -2.9841789170
H 0.9084234380 -2.1266593900 -1.4180317880
H 1.3634395680 1.4639772080 -1.8949828540
H -0.3655772170 1.8157739890 -2.0803158940
H 0.5212108730 1.0010382490 -3.3924731750
H -1.4499443850 -1.6457504430 -1.6908073050
H -1.1715409940 -0.8748635470 -3.2706453690
H -1.9873449210 0.0221797230 -1.9657622730
H -0.7463197370 0.9053876850 4.3027984140
H -1.7635311630 1.5563791290 3.0657708440
H 0.7786722160 -1.4688618800 2.4667793040
H 1.8210918340 -0.0531183590 2.3614594960
H 1.0492843310 -0.4657833630 3.8987960590
O -0.5567337430 0.5059052510 1.1834365190
C -0.2567722130 0.3829582000 2.3789345260
N -0.9723779920 0.9918260730 3.3285789740
C 0.9165561050 -0.4485579760 2.8208623200
