23
1 1
C 1.1763632440 -1.2022312740 -1.9199470050
N 0.0904287090 -0.2066236890 -1.7113370330
H -0.0125132840 -0.0482688480 -0.6759750970
C 0.4266764480 1.1129315750 -2.3158567930
C -1.2239552420 -0.7130370860 -2.1974999270
H 2.0990779430 -0.8105616790 -1.5034032770
H 1.2998758340 -1.3828935820 -2.9841789170
H 0.9084234380 -2.1266593900 -1.4180317880
H 1.3634395680 1.4639772080 -1.8949828540
H -0.3655772170 1.8157739890 -2.0803158940
H 0.5212108730 1.0010382490 -3.3924731750
H -1.4499443850 -1.6457504430 -1.6908073050
H -1.1715409940 -0.8748635470 -3.2706453690
H -1.9873449210 0.0221797230 -1.9657622730
H -0.6374756450 0.7945528650 3.9309160910
H -1.6546870710 1.4455443090 2.6938885210
H 0.8875163080 -1.5796967000 2.0948969810
H 1.9299359260 -0.1639531790 1.9895771730
H 1.1581284230 -0.5766181830 3.5269137360
O -0.4478896510 0.3950704310 0.8115541960
C -0.1479281210 0.2721233800 2.0070522030
N -0.8635339000 0.8809912530 2.9566966510
C 1.0254001970 -0.5593927960 2.4489799970
