14
1 1
N 2.2311439730 0.2768836030 0.0095976700
H 1.1429330210 0.1448998170 0.0047389360
H 2.6247716140 -0.0114977640 -0.8846337250
H 2.6502323650 -0.2824487620 0.7507129950
H 2.4663616320 1.2550688600 0.1692811200
H -0.7724375190 1.9647222650 0.0000658380
H -1.9674074180 1.0020149590 -0.8972668700
H -1.9728024390 0.9988578700 0.8872056850
H -0.2514178970 -2.0881300310 -0.0077276570
H -1.6525904320 -1.4557060100 -0.9005212840
H -1.6558898550 -1.4605773130 0.8838624920
C -1.3465069330 1.0422491440 -0.0030730870
O -0.4147183390 -0.0492406810 -0.0022559400
C -1.0402541740 -1.3408323140 -0.0068778820
