7
0 1
  H    1.038220102  -0.536981767   2.402056663
  H    1.067225777  -2.088813264   1.484622001
  H    2.275286201  -0.791541908   1.154518329
  C    1.258227291  -1.024556361   1.456595703
  N    0.353330257  -0.423653310   0.436957380
  O    0.436285981   0.800024269   0.265562532
  O   -0.414512443  -1.128944098  -0.176270686
