20
1 1
C -3.1671805750 -0.5882738070 -0.7723061930
C -1.8511080210 -0.7740126630 -1.0504915180
N -1.1343802850 -0.0858284520 -0.0982010410
H -0.0943316370 -0.0164805460 -0.0143755350
C -1.9717626380 0.5053473770 0.7406347610
N -3.2141089720 0.2131090630 0.3491854270
H -4.0526714490 -0.9467033070 -1.2610191260
H -1.3763511580 -1.3309519940 -1.8351761590
H -1.6974913890 1.1108983740 1.5844237440
H -4.0522016350 0.5328996290 0.8084148030
H 3.5519268280 -0.1269772420 -1.6550514050
H 1.9506040170 -0.9074639990 -1.7222260760
H 3.2696858070 -1.5988292710 -0.7549889970
H 3.0462323890 1.1052023820 1.8947097340
H 3.9524283850 1.5005018380 0.4183664750
C 2.7983088320 -0.6710026450 -1.0861370310
C 2.3773391630 0.1156204040 0.1190981620
O 1.1980354470 0.2782929320 0.4034350490
C 3.4565087640 0.7018669530 0.9748489870
H 4.2211145540 -0.0438579950 1.1927119320
