22
1 1
C -3.4975422690 0.7108075770 -0.6502861890
C -2.2986841180 1.0809979400 -0.1294429320
N -1.4113665760 0.0585072310 -0.3732084890
H -0.3794725260 0.0186969100 -0.0990465830
C -2.0349059120 -0.9115755190 -1.0215285440
N -3.3056895940 -0.5380685700 -1.2018464820
H -4.4458301560 1.2121479130 -0.6768207370
H -2.0125136690 1.9770156510 0.3868566670
H -1.5967567050 -1.8369815930 -1.3460585220
H -4.0079035160 -1.0888926690 -1.6690464530
C 3.3344358010 1.3202627500 1.5948471860
H 3.0001092520 2.0152143550 0.8258311570
H 4.2434890570 1.7097775670 2.0449903300
H 2.5618278730 1.2645327950 2.3603996790
C 3.5137370210 -0.0411658940 0.9800341730
O 2.5735980520 -0.6345344600 0.4220207650
N 4.7205415870 -0.5992289600 1.0507480240
H 5.4567921980 -0.0922573590 1.5088086460
C 5.0165238580 -1.9124908320 0.4926837200
H 4.3957039670 -2.6735537610 0.9601798400
H 4.8304874050 -1.9212811840 -0.5789732880
H 6.0613006940 -2.1387616780 0.6772321930
