22
1 1
C 0.9290485100 -1.1909295600 -2.1407039080
N -0.1070115140 -0.1834775420 -1.7758673370
H -0.0747811410 -0.0505088390 -0.7434495580
C 0.1749202010 1.1463168690 -2.3910041610
C -1.4816616110 -0.6606926680 -2.1059051920
H 1.9030081410 -0.8211622260 -1.8359949440
H 0.9124363700 -1.3457687330 -3.2156950950
H 0.7094612260 -2.1231565720 -1.6299212650
H 1.1623731800 1.4740139660 -2.0822950850
H -0.5715879390 1.8548064110 -2.0476089330
H 0.1341223550 1.0533322500 -3.4724763660
H -1.6581742630 -1.6026963270 -1.5967828930
H -1.5619870080 -0.7967956590 -3.1805740810
H -2.1985929000 0.0799964070 -1.7674973330
H -1.2635992540 1.6652163240 3.5261893710
H 1.5212712450 -0.9746523470 2.3767278680
H 1.8752358290 0.1116987940 3.7423508570
H 0.7251955170 -1.1913258990 3.9548075070
O -0.3995185230 0.6134527960 1.6756762820
C -0.0067095640 0.4466881960 2.8206194020
O -0.5528323140 1.0882158380 3.8429665440
C 1.1016701090 -0.4644673380 3.2362887550
