22
1 1
C -3.4975422690 0.7108075770 -0.6502861890
C -2.2986841180 1.0809979400 -0.1294429320
N -1.4113665760 0.0585072310 -0.3732084890
H -0.3794725260 0.0186969100 -0.0990465830
C -2.0349059120 -0.9115755190 -1.0215285440
N -3.3056895940 -0.5380685700 -1.2018464820
H -4.4458301560 1.2121479130 -0.6768207370
H -2.0125136690 1.9770156510 0.3868566670
H -1.5967567050 -1.8369815930 -1.3460585220
H -4.0079035160 -1.0888926690 -1.6690464530
C 1.9317272760 1.6305476510 1.3473401960
H 1.5974007270 2.3254992560 0.5783241670
H 2.8407805320 2.0200624680 1.7974833400
H 1.1591193480 1.5748176960 2.1128926890
C 2.1110284960 0.2691190070 0.7325271830
O 1.1708895270 -0.3242495590 0.1745137750
N 3.3178330620 -0.2889440590 0.8032410340
H 4.0540836730 0.2180275420 1.2613016560
C 3.6138153330 -1.6022059310 0.2451767300
H 2.9929954420 -2.3632688600 0.7126728500
H 3.4277788800 -1.6109962830 -0.8264802780
H 4.6585921690 -1.8284767770 0.4297252030
