19
1 1
N -1.9291338220 0.4590374900 -0.6099488500
C -2.1975252290 -0.8370096580 -0.4891621290
N -1.2349225940 -1.6640729620 -0.0945927910
N -3.4175409280 -1.3017950480 -0.7605701690
H -0.9984371160 0.7937123580 -0.3997285280
H -2.6286125180 1.1156537490 -0.9052863950
H -0.3157853100 -1.2939076530 0.1068870820
H -1.3977214250 -2.6491449740 0.0091462800
H -4.1556077830 -0.6899035450 -1.0596053650
H -3.6361804690 -2.2782000560 -0.6745067500
H 4.1870510320 1.9307125550 2.3132408950
H 4.9155926420 1.5376741790 -0.2870123930
H 1.5862023190 1.1098006760 2.4411774290
H 2.6874672040 0.5156730350 -1.4893689010
C 3.9574275820 1.3310604190 0.1544664360
C 3.5742035460 1.5378206540 1.5222112360
C 2.2907368570 1.1439554030 1.6315791560
O 1.8310810150 0.6961260320 0.4078628030
C 2.8822763240 0.8248176870 -0.4796837520
