14
1 1
N 2.2311439730 0.2768836030 0.0095976700
H 1.1429330210 0.1448998170 0.0047389360
H 2.6247716140 -0.0114977640 -0.8846337250
H 2.6502323650 -0.2824487620 0.7507129950
H 2.4663616320 1.2550688600 0.1692811200
H -0.6240897710 1.9832118370 0.0007320160
H -1.8190596700 1.0205045310 -0.8966006920
H -1.8244546910 1.0173474420 0.8878718630
H -0.1030701490 -2.0696404590 -0.0070614790
H -1.5042426840 -1.4372164380 -0.8998551060
H -1.5075421070 -1.4420877410 0.8845286700
C -1.1981591850 1.0607387160 -0.0024069090
O -0.2663705910 -0.0307511090 -0.0015897620
C -0.8919064260 -1.3223427420 -0.0062117040
