12
1 1
N -0.0051567170 0.0274015050 2.6696447320
H -0.0030192970 0.0575135140 1.5941493720
H 0.8229440250 0.4904111350 3.0409765430
H -0.0036771880 -0.9460258930 2.9728230750
H -0.8368428380 0.4867760670 3.0374708320
H 0.8782731190 0.0057859450 -3.6567594010
H -0.8641958220 0.0079410740 -3.6600198610
H 0.0040930030 -1.4317145160 -3.0405280040
H 0.0052108680 1.3805711460 -1.7334342980
C 0.0055579260 -0.3480718680 -3.1009379620
C 0.0038133020 0.2799232890 -1.7636792420
O 0.0009525440 -0.3498390560 -0.7169196180
