17
1 1
N -2.0411234960 1.3282854950 -2.0890307470
H -1.4599243760 2.1567686990 -2.1984120990
H -2.1525293340 0.8782293280 -2.9953992630
H -2.9575319850 1.6080534950 -1.7449301480
H -1.5681409650 0.6352383850 -1.3799556200
H 2.8629327600 0.1795270570 0.5533668260
H 1.9973747740 0.9673185050 1.8997634540
H 2.4749951730 1.9194354740 0.4678208240
H -0.8827409050 -2.2595487100 1.9367782180
H -0.0175002740 -3.0474288070 0.5904131760
H 0.7266859790 -2.9860493760 2.2144805940
O 0.8815844380 0.7118145540 0.1500439180
C 0.2190453290 -0.4023299120 0.3761356560
O -0.8529600940 -0.6113705110 -0.1906540720
O 0.7806170820 -1.2255580250 1.2189279720
C 0.0896546030 -2.4735743010 1.5051966580
C 2.1496387560 0.9506719200 0.8254954960
