23
1 1
C -2.7888264180 -0.1069681930 -1.7244005960
C -1.6073610320 0.0667530930 -1.0788925250
N -1.8754204680 0.0001840210 0.2711490800
H -1.1653234550 0.1016943540 1.0180546550
C -3.1713330650 -0.2072559950 0.4582187540
N -3.7452256170 -0.2754182960 -0.7439986680
H -3.0283640120 -0.1272931950 -2.7702018860
H -0.6120879100 0.2189548640 -1.4505833390
H -3.6712580450 -0.3047796270 1.4040612340
H -4.7287835430 -0.4286469970 -0.9027168870
H 0.9624132800 -1.8716357600 0.6915916790
H 4.1838759920 -0.1556405990 -1.5644564800
H 2.7010413650 -2.0722566640 -1.0657832430
H 2.1579454710 2.1765706490 1.4058265110
H 0.5789914790 0.9693870460 2.6701404390
H 3.9193817000 1.9603553800 -0.3110147230
C 3.4145181270 -0.0643070240 -0.8127497000
C 2.5783132700 -1.1391013820 -0.5357334400
C 1.5946052540 -1.0320239260 0.4403763970
C 1.4549610930 0.1657815790 1.1246961810
C 2.2793602900 1.2489231590 0.8620171940
C 3.2671030320 1.1239412930 -0.1078539680
O 0.4170086590 0.2478548730 2.0537514950
