12
0 1
H 2.6054676470 0.6283062590 0.1252182680
H 1.7399096610 1.4160977070 1.4716148970
H 2.2175300600 2.3682146760 0.0396722660
H -1.1402060180 -1.8107695080 1.5086296600
H -0.2749653870 -2.5986496050 0.1622646180
H 0.4692208660 -2.5372701740 1.7863320360
O 0.6241193250 1.1605937560 -0.2781046400
C -0.0384197840 0.0464492900 -0.0520129010
O -1.1104252070 -0.1625913090 -0.6188026300
O 0.5231519690 -0.7767788230 0.7907794140
C -0.1678105100 -2.0247950990 1.0770481010
C 1.8921736430 1.3994511220 0.3973469390
