7
0 1
  H    3.364285834   2.169110330   0.120391114
  H    3.504759892   1.067210767   1.516369930
  H    3.974716528   0.479231193  -0.101097406
  C    3.313792721   1.138260888   0.447703930
  N    1.916177035   0.660521846   0.240967650
  O    1.742005149  -0.531711369   0.041116253
  O    1.014562882   1.481832635   0.306093226
