23
1 1
C 1.1763632440 -1.2022312740 -1.9199470050
N 0.0904287090 -0.2066236890 -1.7113370330
H -0.0125132840 -0.0482688480 -0.6759750970
C 0.4266764480 1.1129315750 -2.3158567930
C -1.2239552420 -0.7130370860 -2.1974999270
H 2.0990779430 -0.8105616790 -1.5034032770
H 1.2998758340 -1.3828935820 -2.9841789170
H 0.9084234380 -2.1266593900 -1.4180317880
H 1.3634395680 1.4639772080 -1.8949828540
H -0.3655772170 1.8157739890 -2.0803158940
H 0.5212108730 1.0010382490 -3.3924731750
H -1.4499443850 -1.6457504430 -1.6908073050
H -1.1715409940 -0.8748635470 -3.2706453690
H -1.9873449210 0.0221797230 -1.9657622730
H -0.8551638280 1.0162225040 4.6746807380
H -1.8723752540 1.6672139480 3.4376531680
H 0.6698281240 -1.3580270600 2.8386616280
H 1.7122477420 0.0577164600 2.7333418200
H 0.9404402400 -0.3549485440 4.2706783820
O -0.6655778340 0.6167400700 1.5553188420
C -0.3656163040 0.4937930200 2.7508168500
N -1.0812220840 1.1026608920 3.7004612980
C 0.8077120140 -0.3377231560 3.1927446440
