7
0 1
H 0.8186107470 -0.4416164480 2.1650242330
H 0.8476164220 -1.9934479450 1.2475895710
H 2.0556768460 -0.6961765890 0.9174858990
C 1.0386179360 -0.9291910420 1.2195632730
N 0.1337209020 -0.3282879910 0.1999249500
O 0.2166766260 0.8953895880 0.0285301020
O -0.6341217980 -1.0335787790 -0.4133031160
