10
0 1
  C   -3.497542269   0.710807577  -0.650286189
  C   -2.298684118   1.080997940  -0.129442932
  N   -1.411366576   0.058507231  -0.373208489
  H   -0.379472526   0.018696910  -0.099046583
  C   -2.034905912  -0.911575519  -1.021528544
  N   -3.305689594  -0.538068570  -1.201846482
  H   -4.445830156   1.212147913  -0.676820737
  H   -2.012513669   1.977015651   0.386856667
  H   -1.596756705  -1.836981593  -1.346058522
  H   -4.007903516  -1.088892669  -1.669046453
