19
1 1
N -1.9291338220 0.4590374900 -0.6099488500
C -2.1975252290 -0.8370096580 -0.4891621290
N -1.2349225940 -1.6640729620 -0.0945927910
N -3.4175409280 -1.3017950480 -0.7605701690
H -0.9984371160 0.7937123580 -0.3997285280
H -2.6286125180 1.1156537490 -0.9052863950
H -0.3157853100 -1.2939076530 0.1068870820
H -1.3977214250 -2.6491449740 0.0091462800
H -4.1556077830 -0.6899035450 -1.0596053650
H -3.6361804690 -2.2782000560 -0.6745067500
H 3.7206374840 1.7533421980 2.2093400220
H 4.4491790940 1.3603038220 -0.3909132660
H 1.1197887710 0.9324303190 2.3372765560
H 2.2210536560 0.3383026780 -1.5932697740
C 3.4910140340 1.1536900620 0.0505655630
C 3.1077899980 1.3604502970 1.4183103630
C 1.8243233090 0.9665850460 1.5276782830
O 1.3646674670 0.5187556750 0.3039619300
C 2.4158627760 0.6474473300 -0.5835846250
