12
1 1
N -1.3766785800 1.4952250420 -1.6707723110
H -0.6617607950 1.2768508660 -0.9195996160
H -0.9206456180 1.9030987350 -2.4862511040
H -2.0757295190 2.1469283680 -1.3158851750
H -1.8308947480 0.6210794480 -1.9369661690
H 1.5872434900 -0.7753950660 2.9946377370
H 1.6162491650 -2.3272265620 2.0772030750
H 2.8243095890 -1.0299552060 1.7470994030
C 1.8072506790 -1.2629696600 2.0491767770
N 0.9023536450 -0.6620666080 1.0295384540
O 0.9853093690 0.5616109700 0.8581436060
O 0.1345109450 -1.3673573960 0.4163103880
