19
1 1
N -1.9291338220 0.4590374900 -0.6099488500
C -2.1975252290 -0.8370096580 -0.4891621290
N -1.2349225940 -1.6640729620 -0.0945927910
N -3.4175409280 -1.3017950480 -0.7605701690
H -0.9984371160 0.7937123580 -0.3997285280
H -2.6286125180 1.1156537490 -0.9052863950
H -0.3157853100 -1.2939076530 0.1068870820
H -1.3977214250 -2.6491449740 0.0091462800
H -4.1556077830 -0.6899035450 -1.0596053650
H -3.6361804690 -2.2782000560 -0.6745067500
H 3.3475066450 1.6114459120 2.1262193230
H 4.0760482550 1.2184075360 -0.4740339650
H 0.7466579320 0.7905340330 2.2541558570
H 1.8479228170 0.1964063920 -1.6763904730
C 3.1178831950 1.0117937760 -0.0325551360
C 2.7346591590 1.2185540110 1.3351896640
C 1.4511924700 0.8246887600 1.4445575840
O 0.9915366280 0.3768593890 0.2208412310
C 2.0427319370 0.5055510440 -0.6667053240
