23
1 1
C -2.7888264180 -0.1069681930 -1.7244005960
C -1.6073610320 0.0667530930 -1.0788925250
N -1.8754204680 0.0001840210 0.2711490800
H -1.1653234550 0.1016943540 1.0180546550
C -3.1713330650 -0.2072559950 0.4582187540
N -3.7452256170 -0.2754182960 -0.7439986680
H -3.0283640120 -0.1272931950 -2.7702018860
H -0.6120879100 0.2189548640 -1.4505833390
H -3.6712580450 -0.3047796270 1.4040612340
H -4.7287835430 -0.4286469970 -0.9027168870
H 1.1781858410 -1.8517047800 0.8328230660
H 4.3996485530 -0.1357096190 -1.4232250920
H 2.9168139260 -2.0523256840 -0.9245518560
H 2.3737180320 2.1965016290 1.5470578980
H 0.7947640400 0.9893180260 2.8113718260
H 4.1351542610 1.9802863600 -0.1697833360
C 3.6302906880 -0.0443760440 -0.6715183120
C 2.7940858310 -1.1191704020 -0.3945020520
C 1.8103778150 -1.0120929460 0.5816077840
C 1.6707336540 0.1857125590 1.2659275680
C 2.4951328510 1.2688541390 1.0032485820
C 3.4828755930 1.1438722730 0.0333774200
O 0.6327812200 0.2677858530 2.1949828820
