23
1 1
C -2.7888264180 -0.1069681930 -1.7244005960
C -1.6073610320 0.0667530930 -1.0788925250
N -1.8754204680 0.0001840210 0.2711490800
H -1.1653234550 0.1016943540 1.0180546550
C -3.1713330650 -0.2072559950 0.4582187540
N -3.7452256170 -0.2754182960 -0.7439986680
H -3.0283640120 -0.1272931950 -2.7702018860
H -0.6120879100 0.2189548640 -1.4505833390
H -3.6712580450 -0.3047796270 1.4040612340
H -4.7287835430 -0.4286469970 -0.9027168870
H 0.7466407190 -1.8915667400 0.5503602920
H 3.9681034310 -0.1755715790 -1.7056878670
H 2.4852688040 -2.0921876440 -1.2070146300
H 1.9421729100 2.1566396690 1.2645951240
H 0.3632189180 0.9494560660 2.5289090520
H 3.7036091390 1.9404244000 -0.4522461100
C 3.1987455660 -0.0842380040 -0.9539810870
C 2.3625407090 -1.1590323620 -0.6769648270
C 1.3788326930 -1.0519549060 0.2991450100
C 1.2391885320 0.1458505990 0.9834647940
C 2.0635877290 1.2289921790 0.7207858070
C 3.0513304710 1.1040103130 -0.2490853550
O 0.2012360980 0.2279238930 1.9125201080
