23
1 1
C 1.1763632440 -1.2022312740 -1.9199470050
N 0.0904287090 -0.2066236890 -1.7113370330
H -0.0125132840 -0.0482688480 -0.6759750970
C 0.4266764480 1.1129315750 -2.3158567930
C -1.2239552420 -0.7130370860 -2.1974999270
H 2.0990779430 -0.8105616790 -1.5034032770
H 1.2998758340 -1.3828935820 -2.9841789170
H 0.9084234380 -2.1266593900 -1.4180317880
H 1.3634395680 1.4639772080 -1.8949828540
H -0.3655772170 1.8157739890 -2.0803158940
H 0.5212108730 1.0010382490 -3.3924731750
H -1.4499443850 -1.6457504430 -1.6908073050
H -1.1715409940 -0.8748635470 -3.2706453690
H -1.9873449210 0.0221797230 -1.9657622730
H -0.5939380080 0.7502189370 3.7821631620
H -1.6111494340 1.4012103810 2.5451355920
H 0.9310539450 -1.6240306280 1.9461440520
H 1.9734735630 -0.2082871070 1.8408242440
H 1.2016660600 -0.6209521110 3.3781608070
O -0.4043520140 0.3507365030 0.6628012670
C -0.1043904840 0.2277894520 1.8582992740
N -0.8199962630 0.8366573250 2.8079437220
C 1.0689378340 -0.6037267240 2.3002270680
