21
1 1
C 0.4072978760 -1.4256894190 -1.7531343500
N -0.2516689430 -0.1259504590 -1.4302139930
H -0.2256094150 -0.0275594030 -0.3959009080
C 0.5110536420 1.0287498910 -1.9894411190
C -1.6786942420 -0.1072331080 -1.8622841860
H 1.4197720370 -1.4091351640 -1.3635650320
H 0.4214916940 -1.5573991090 -2.8311922260
H -0.1537092330 -2.2293548430 -1.2871464780
H 1.5217149630 1.0020775830 -1.5957375780
H 0.0229843230 1.9505127780 -1.6896133090
H 0.5275440940 0.9510631720 -3.0727017710
H -2.2008489340 -0.9335219560 -1.3904406920
H -1.7235631990 -0.2093690620 -2.9427074320
H -2.1261279390 0.8345070770 -1.5606850420
H 0.5106450410 -0.5146471690 4.0111857880
H 0.5909134140 1.2192833480 3.8445819150
H 1.7992592490 0.2052072170 2.9984929810
H -1.2399391090 0.2867792970 2.3817834690
C 0.7613419930 0.2829146230 3.3069982520
C -0.1641655860 0.2146801350 2.1512868050
O 0.1932090420 0.0868297320 0.9948702170
