23
1 1
C 1.1763632440 -1.2022312740 -1.9199470050
N 0.0904287090 -0.2066236890 -1.7113370330
H -0.0125132840 -0.0482688480 -0.6759750970
C 0.4266764480 1.1129315750 -2.3158567930
C -1.2239552420 -0.7130370860 -2.1974999270
H 2.0990779430 -0.8105616790 -1.5034032770
H 1.2998758340 -1.3828935820 -2.9841789170
H 0.9084234380 -2.1266593900 -1.4180317880
H 1.3634395680 1.4639772080 -1.8949828540
H -0.3655772170 1.8157739890 -2.0803158940
H 0.5212108730 1.0010382490 -3.3924731750
H -1.4499443850 -1.6457504430 -1.6908073050
H -1.1715409940 -0.8748635470 -3.2706453690
H -1.9873449210 0.0221797230 -1.9657622730
H -0.6592444630 0.8167198290 4.0052925560
H -1.6764558890 1.4677112730 2.7682649860
H 0.8657474900 -1.5575297360 2.1692734460
H 1.9081671080 -0.1417862150 2.0639536380
H 1.1363596050 -0.5544512190 3.6012902010
O -0.4696584690 0.4172373950 0.8859306610
C -0.1696969390 0.2942903440 2.0814286680
N -0.8853027180 0.9031582170 3.0310731160
C 1.0036313790 -0.5372258320 2.5233564620
