23
1 1
C -2.7888264180 -0.1069681930 -1.7244005960
C -1.6073610320 0.0667530930 -1.0788925250
N -1.8754204680 0.0001840210 0.2711490800
H -1.1653234550 0.1016943540 1.0180546550
C -3.1713330650 -0.2072559950 0.4582187540
N -3.7452256170 -0.2754182960 -0.7439986680
H -3.0283640120 -0.1272931950 -2.7702018860
H -0.6120879100 0.2189548640 -1.4505833390
H -3.6712580450 -0.3047796270 1.4040612340
H -4.7287835430 -0.4286469970 -0.9027168870
H 0.5308681580 -1.9114977200 0.4091289050
H 3.7523308700 -0.1955025590 -1.8469192540
H 2.2694962430 -2.1121186240 -1.3482460170
H 1.7264003490 2.1367086890 1.1233637370
H 0.1474463570 0.9295250860 2.3876776650
H 3.4878365780 1.9204934200 -0.5934774970
C 2.9829730050 -0.1041689840 -1.0952124740
C 2.1467681480 -1.1789633420 -0.8181962140
C 1.1630601320 -1.0718858860 0.1579136230
C 1.0234159710 0.1259196190 0.8422334070
C 1.8478151680 1.2090611990 0.5795544200
C 2.8355579100 1.0840793330 -0.3903167420
O -0.0145364630 0.2079929130 1.7712887210
