12
1 1
N -1.3766785800 1.4952250420 -1.6707723110
H -0.6617607950 1.2768508660 -0.9195996160
H -0.9206456180 1.9030987350 -2.4862511040
H -2.0757295190 2.1469283680 -1.3158851750
H -1.8308947480 0.6210794480 -1.9369661690
H 1.3127317960 -0.6561884160 2.6983472000
H 1.3417374710 -2.2080199130 1.7809125380
H 2.5497978950 -0.9107485570 1.4508088660
C 1.5327389850 -1.1437630100 1.7528862400
N 0.6278419510 -0.5428599590 0.7332479170
O 0.7107976750 0.6808176200 0.5618530690
O -0.1400007490 -1.2481507470 0.1200198510
