12
1 1
N -0.0051567170 0.0274015050 2.6696447320
H -0.0030192970 0.0575135140 1.5941493720
H 0.8229440250 0.4904111350 3.0409765430
H -0.0036771880 -0.9460258930 2.9728230750
H -0.8368428380 0.4867760670 3.0374708320
H 0.8772139610 0.1144132970 -3.0404743370
H -0.8652549800 0.1165684260 -3.0437347970
H 0.0030338450 -1.3230871640 -2.4242429400
H 0.0041517100 1.4891984980 -1.1171492340
C 0.0044987680 -0.2394445160 -2.4846528980
C 0.0027541440 0.3885506410 -1.1473941780
O -0.0001066140 -0.2412117040 -0.1006345540
