20
1 1
C -3.1671805750 -0.5882738070 -0.7723061930
C -1.8511080210 -0.7740126630 -1.0504915180
N -1.1343802850 -0.0858284520 -0.0982010410
H -0.0943316370 -0.0164805460 -0.0143755350
C -1.9717626380 0.5053473770 0.7406347610
N -3.2141089720 0.2131090630 0.3491854270
H -4.0526714490 -0.9467033070 -1.2610191260
H -1.3763511580 -1.3309519940 -1.8351761590
H -1.6974913890 1.1108983740 1.5844237440
H -4.0522016350 0.5328996290 0.8084148030
H 3.7799916080 -0.0749583930 -1.5813201250
H 2.1786687970 -0.8554451500 -1.6484947960
H 3.4977505870 -1.5468104220 -0.6812577170
H 3.2742971690 1.1572212310 1.9684410140
H 4.1804931650 1.5525206870 0.4920977550
C 3.0263736120 -0.6189837960 -1.0124057510
C 2.6054039430 0.1676392530 0.1928294420
O 1.4261002270 0.3303117810 0.4771663290
C 3.6845735440 0.7538858020 1.0485802670
H 4.4491793340 0.0081608540 1.2664432120
