16
1 1
N -1.1710552390 0.8831298790 -0.1906524450
C -1.7042904070 -0.3346253440 -0.1917924590
N -0.9211949940 -1.3956639200 -0.0392111690
N -3.0216996430 -0.4888140650 -0.3457690170
H -0.1679748610 1.0141211780 -0.0743315600
H -1.7475256180 1.6971432820 -0.3047535740
H 0.0823493060 -1.2832355980 0.0783069460
H -1.3018230630 -2.3247669490 -0.0369225870
H -3.6307553060 0.3006986030 -0.4623912350
H -3.4441356610 -1.3996473460 -0.3492459110
H 3.4232057660 2.1991892430 1.1878393180
H 3.6366176150 2.1070906100 -0.5483660140
H 4.3563266260 0.8126873420 0.4924161790
C 3.5270671930 1.5012293110 0.3539692190
N 2.2543682310 0.8013061380 0.2346539820
O 2.3191628660 -0.3992686670 0.3062838310
