9
0 1
H -0.5504003720 0.7058850090 3.6334102320
H -1.5676117980 1.3568764530 2.3963826620
H 0.9745915810 -1.6683645560 1.7973911220
H 2.0170111990 -0.2526210350 1.6920713140
H 1.2452036960 -0.6652860390 3.2294078770
O -0.3608143780 0.3064025750 0.5140483370
C -0.0608528480 0.1834555240 1.7095463440
N -0.7764586270 0.7923233970 2.6591907920
C 1.1124754700 -0.6480606520 2.1514741380
