16
1 1
N -1.1710552390 0.8831298790 -0.1906524450
C -1.7042904070 -0.3346253440 -0.1917924590
N -0.9211949940 -1.3956639200 -0.0392111690
N -3.0216996430 -0.4888140650 -0.3457690170
H -0.1679748610 1.0141211780 -0.0743315600
H -1.7475256180 1.6971432820 -0.3047535740
H 0.0823493060 -1.2832355980 0.0783069460
H -1.3018230630 -2.3247669490 -0.0369225870
H -3.6307553060 0.3006986030 -0.4623912350
H -3.4441356610 -1.3996473460 -0.3492459110
H 2.7074254270 1.9163198250 1.1148867150
H 2.9208372760 1.8242211920 -0.6213186170
H 3.6405462870 0.5298179240 0.4194635760
C 2.8112868540 1.2183598930 0.2810166160
N 1.5385878920 0.5184367200 0.1617013790
O 1.6033825270 -0.6821380850 0.2333312280
