19
1 1
N -1.6804488910 0.7448309150 -0.3351915550
C -2.1904113020 -0.4559734510 -0.0949531850
N -1.3680317660 -1.4503667220 0.2198990270
N -3.5091918760 -0.6642444890 -0.1678016370
H -0.6684545670 0.8584745300 -0.2680495440
H -2.2660370330 1.5227872220 -0.5756705390
H -0.3708336200 -1.2571776330 0.2666445110
H -1.7118619300 -2.3733179440 0.4089573090
H -4.1416512330 0.0779140600 -0.4050205610
H -3.9054860090 -1.5685614460 0.0117863370
H 4.9273891200 -0.5443434170 0.5899235160
H 3.7444615920 -1.7868602980 0.7776401670
H 3.0339623160 1.7036639520 -1.0339460510
H 2.8757250160 2.1121545350 0.6704967660
H 4.4501357700 1.6203594180 0.0260168820
O 1.7979458440 -0.3230456620 0.2451620790
C 2.9844557180 0.0320365180 0.2706013450
N 3.9646279980 -0.8277663850 0.5681159510
C 3.3788678640 1.4506341040 -0.0327701370
