12
0 1
C 1.5625934540 1.7122015720 1.2822067770
H 1.2282669050 2.4071531770 0.5131907480
H 2.4716467100 2.1017163890 1.7323499210
H 0.7899855260 1.6564716170 2.0477592700
C 1.7418946740 0.3507729280 0.6673937640
O 0.8017557050 -0.2425956380 0.1093803560
N 2.9486992400 -0.2072901380 0.7381076150
H 3.6849498510 0.2996814630 1.1961682370
C 3.2446815110 -1.5205520100 0.1800433110
H 2.6238616200 -2.2816149390 0.6475394310
H 3.0586450580 -1.5293423620 -0.8916136970
H 4.2894583470 -1.7468228560 0.3645917840
