16
1 1
N -1.1710552390 0.8831298790 -0.1906524450
C -1.7042904070 -0.3346253440 -0.1917924590
N -0.9211949940 -1.3956639200 -0.0392111690
N -3.0216996430 -0.4888140650 -0.3457690170
H -0.1679748610 1.0141211780 -0.0743315600
H -1.7475256180 1.6971432820 -0.3047535740
H 0.0823493060 -1.2832355980 0.0783069460
H -1.3018230630 -2.3247669490 -0.0369225870
H -3.6307553060 0.3006986030 -0.4623912350
H -3.4441356610 -1.3996473460 -0.3492459110
H 3.1547881390 2.0931132120 1.1604820920
H 3.3681999880 2.0010145780 -0.5757232400
H 4.0879089990 0.7066113100 0.4650589530
C 3.2586495660 1.3951532800 0.3266119930
N 1.9859506040 0.6952301060 0.2072967560
O 2.0507452390 -0.5053446980 0.2789266050
