23
1 1
C 1.1763632440 -1.2022312740 -1.9199470050
N 0.0904287090 -0.2066236890 -1.7113370330
H -0.0125132840 -0.0482688480 -0.6759750970
C 0.4266764480 1.1129315750 -2.3158567930
C -1.2239552420 -0.7130370860 -2.1974999270
H 2.0990779430 -0.8105616790 -1.5034032770
H 1.2998758340 -1.3828935820 -2.9841789170
H 0.9084234380 -2.1266593900 -1.4180317880
H 1.3634395680 1.4639772080 -1.8949828540
H -0.3655772170 1.8157739890 -2.0803158940
H 0.5212108730 1.0010382490 -3.3924731750
H -1.4499443850 -1.6457504430 -1.6908073050
H -1.1715409940 -0.8748635470 -3.2706453690
H -1.9873449210 0.0221797230 -1.9657622730
H -0.6157068270 0.7723859010 3.8565396260
H -1.6329182530 1.4233773450 2.6195120560
H 0.9092851260 -1.6018636640 2.0205205160
H 1.9517047440 -0.1861201430 1.9152007080
H 1.1798972410 -0.5987851470 3.4525372710
O -0.4261208330 0.3729034670 0.7371777310
C -0.1261593030 0.2499564160 1.9326757380
N -0.8417650820 0.8588242890 2.8823201860
C 1.0471690150 -0.5815597600 2.3746035320
