20
1 1
C 0.4141160980 -1.2783790140 -2.1935868970
N -0.1521856190 -0.1928623240 -1.3385884520
H 0.1711945050 -0.3615224040 -0.3665280250
C 0.3578044890 1.1517106990 -1.7417361100
C -1.6450396350 -0.2292385930 -1.3150391440
H 1.4973069250 -1.2423145960 -2.1365347830
H 0.0896415850 -1.1245198130 -3.2185583490
H 0.0561087940 -2.2360344780 -1.8294654690
H 1.4420633660 1.1448727140 -1.6939477710
H -0.0395059570 1.8944008380 -1.0577822110
H 0.0318426820 1.3623823650 -2.7561124390
H -1.9671086480 -1.2057359930 -0.9676601260
H -2.0175587260 -0.0506438400 -2.3194921380
H -2.0016580360 0.5414974740 -0.6397414990
H -0.6706957710 0.6046716600 3.8639525740
H 0.7458544100 1.5811391830 3.5621801920
H 0.9483435680 -0.2058987400 3.7856012220
C 0.3172713010 0.5895505680 3.3972370250
N 0.0938974620 0.4710944130 1.9653462340
O 0.6387212580 -0.4788492520 1.4487024560
