22
1 1
C -3.4975422690 0.7108075770 -0.6502861890
C -2.2986841180 1.0809979400 -0.1294429320
N -1.4113665760 0.0585072310 -0.3732084890
H -0.3794725260 0.0186969100 -0.0990465830
C -2.0349059120 -0.9115755190 -1.0215285440
N -3.3056895940 -0.5380685700 -1.2018464820
H -4.4458301560 1.2121479130 -0.6768207370
H -2.0125136690 1.9770156510 0.3868566670
H -1.5967567050 -1.8369815930 -1.3460585220
H -4.0079035160 -1.0888926690 -1.6690464530
C 2.2270343340 1.5652245140 1.3994469300
H 1.8927077850 2.2601761190 0.6304309020
H 3.1360875900 1.9547393310 1.8495900740
H 1.4544264060 1.5094945590 2.1649994240
C 2.4063355540 0.2037958700 0.7846339180
O 1.4661965850 -0.3895726960 0.2266205100
N 3.6131401200 -0.3542671960 0.8553477680
H 4.3493907310 0.1527044050 1.3134083900
C 3.9091223910 -1.6675290680 0.2972834640
H 3.2883025000 -2.4285919970 0.7647795840
H 3.7230859380 -1.6763194200 -0.7743735440
H 4.9538992270 -1.8937999140 0.4818319380
