20
1 1
C -3.1671805750 -0.5882738070 -0.7723061930
C -1.8511080210 -0.7740126630 -1.0504915180
N -1.1343802850 -0.0858284520 -0.0982010410
H -0.0943316370 -0.0164805460 -0.0143755350
C -1.9717626380 0.5053473770 0.7406347610
N -3.2141089720 0.2131090630 0.3491854270
H -4.0526714490 -0.9467033070 -1.2610191260
H -1.3763511580 -1.3309519940 -1.8351761590
H -1.6974913890 1.1108983740 1.5844237440
H -4.0522016350 0.5328996290 0.8084148030
H 3.6279484220 -0.1096376260 -1.6304743110
H 2.0266256110 -0.8901243830 -1.6976489820
H 3.3457074010 -1.5814896550 -0.7304119030
H 3.1222539830 1.1225419980 1.9192868280
H 4.0284499790 1.5178414540 0.4429435690
C 2.8743304260 -0.6536630290 -1.0615599370
C 2.4533607570 0.1329600200 0.1436752560
O 1.2740570410 0.2956325480 0.4280121430
C 3.5325303580 0.7192065690 0.9994260810
H 4.2971361480 -0.0265183790 1.2172890260
