12
1 1
N -0.0051567170 0.0274015050 2.6696447320
H -0.0030192970 0.0575135140 1.5941493720
H 0.8229440250 0.4904111350 3.0409765430
H -0.0036771880 -0.9460258930 2.9728230750
H -0.8368428380 0.4867760670 3.0374708320
H 0.8764195930 0.1958838110 -2.5782605390
H -0.8660493480 0.1980389400 -2.5815209990
H 0.0022394770 -1.2416166500 -1.9620291420
H 0.0033573420 1.5706690120 -0.6549354360
C 0.0037044000 -0.1579740020 -2.0224391000
C 0.0019597760 0.4700211550 -0.6851803800
O -0.0009009820 -0.1597411900 0.3615792440
