10
0 1
H 3.4759052350 -0.1443168580 -1.6796284980
H 1.8745824240 -0.9248036150 -1.7468031690
H 3.1936642140 -1.6161688870 -0.7795660900
H 2.9702107960 1.0878627660 1.8701326410
H 3.8764067920 1.4831622220 0.3937893820
C 2.7222872390 -0.6883422610 -1.1107141240
C 2.3013175700 0.0982807880 0.0945210690
O 1.1220138540 0.2609533160 0.3788579560
C 3.3804871710 0.6845273370 0.9502718940
H 4.1450929610 -0.0611976110 1.1681348390
