14
1 1
N 2.2311439730 0.2768836030 0.0095976700
H 1.1429330210 0.1448998170 0.0047389360
H 2.6247716140 -0.0114977640 -0.8846337250
H 2.6502323650 -0.2824487620 0.7507129950
H 2.4663616320 1.2550688600 0.1692811200
H -0.8466113940 1.9554774800 -0.0002672520
H -2.0415812930 0.9927701740 -0.8975999600
H -2.0469763140 0.9896130850 0.8868725950
H -0.3255917720 -2.0973748160 -0.0080607470
H -1.7267643070 -1.4649507950 -0.9008543740
H -1.7300637300 -1.4698220980 0.8835294020
C -1.4206808080 1.0330043590 -0.0034061770
O -0.4888922140 -0.0584854660 -0.0025890300
C -1.1144280490 -1.3500770990 -0.0072109720
