12
1 1
N -0.0051567170 0.0274015050 2.6696447320
H -0.0030192970 0.0575135140 1.5941493720
H 0.8229440250 0.4904111350 3.0409765430
H -0.0036771880 -0.9460258930 2.9728230750
H -0.8368428380 0.4867760670 3.0374708320
H 0.8765519880 0.1823053920 -2.6552961720
H -0.8659169530 0.1844605210 -2.6585566320
H 0.0023718720 -1.2551950690 -2.0390647750
H 0.0034897370 1.5570905930 -0.7319710690
C 0.0038367950 -0.1715524210 -2.0994747330
C 0.0020921710 0.4564427360 -0.7622160130
O -0.0007685870 -0.1733196090 0.2845436110
