9
-1 1
  H    4.105255650  -0.150503353   0.418852975
  H    2.922328122  -1.393020234   0.606569626
  H    2.211828846   2.097504016  -1.205016592
  H    2.053591546   2.505994599   0.499426225
  H    3.628002299   2.014199482  -0.145053659
  O    0.975812374   0.070794402   0.074091538
  C    2.162322248   0.425876582   0.099530804
  N    3.142494528  -0.433926321   0.397045410
  C    2.556734394   1.844474168  -0.203840678
