22
1 1
C 0.9290485100 -1.1909295600 -2.1407039080
N -0.1070115140 -0.1834775420 -1.7758673370
H -0.0747811410 -0.0505088390 -0.7434495580
C 0.1749202010 1.1463168690 -2.3910041610
C -1.4816616110 -0.6606926680 -2.1059051920
H 1.9030081410 -0.8211622260 -1.8359949440
H 0.9124363700 -1.3457687330 -3.2156950950
H 0.7094612260 -2.1231565720 -1.6299212650
H 1.1623731800 1.4740139660 -2.0822950850
H -0.5715879390 1.8548064110 -2.0476089330
H 0.1341223550 1.0533322500 -3.4724763660
H -1.6581742630 -1.6026963270 -1.5967828930
H -1.5619870080 -0.7967956590 -3.1805740810
H -2.1985929000 0.0799964070 -1.7674973330
H -1.1445288810 1.4217637240 2.6391765630
H 1.6403416180 -1.2181049460 1.4897150600
H 1.9943062020 -0.1317538060 2.8553380490
H 0.8442658900 -1.4347784980 3.0677946990
O -0.2804481500 0.3700001960 0.7886634740
C 0.1123608090 0.2032355960 1.9336065940
O -0.4337619410 0.8447632380 2.9559537360
C 1.2207404820 -0.7079199380 2.3492759470
