23
1 1
C -2.7888264180 -0.1069681930 -1.7244005960
C -1.6073610320 0.0667530930 -1.0788925250
N -1.8754204680 0.0001840210 0.2711490800
H -1.1653234550 0.1016943540 1.0180546550
C -3.1713330650 -0.2072559950 0.4582187540
N -3.7452256170 -0.2754182960 -0.7439986680
H -3.0283640120 -0.1272931950 -2.7702018860
H -0.6120879100 0.2189548640 -1.4505833390
H -3.6712580450 -0.3047796270 1.4040612340
H -4.7287835430 -0.4286469970 -0.9027168870
H 0.6747165320 -1.8982104000 0.5032831630
H 3.8961792440 -0.1822152390 -1.7527649960
H 2.4133446170 -2.0988313040 -1.2540917590
H 1.8702487230 2.1499960090 1.2175179950
H 0.2912947310 0.9428124060 2.4818319230
H 3.6316849520 1.9337807400 -0.4993232390
C 3.1268213790 -0.0908816640 -1.0010582160
C 2.2906165220 -1.1656760220 -0.7240419560
C 1.3069085060 -1.0585985660 0.2520678810
C 1.1672643450 0.1392069390 0.9363876650
C 1.9916635420 1.2223485190 0.6737086780
C 2.9794062840 1.0973666530 -0.2961624840
O 0.1293119110 0.2212802330 1.8654429790
