20
1 1
N -1.4113147900 0.0159680820 0.7387102750
C -1.7722698660 -0.8547455080 -0.1909563450
N -0.8490740870 -1.2930701970 -1.0471593840
N -3.0295703610 -1.2907363680 -0.2820187090
H -0.4275544930 0.3120484130 0.7677684420
H -2.0721541940 0.3802695030 1.4010336950
H 0.0953320000 -0.9519321320 -0.9656166960
H -1.0628287030 -1.9613957790 -1.7645858930
H -3.7365087600 -0.9776813830 0.3588522980
H -3.3073839190 -1.9465639260 -0.9900318290
H 3.7863329010 -0.1416842050 2.1300100880
H 5.2536660990 0.0525468460 1.1252873400
H 4.1073893910 -1.2931575060 0.8403156220
H 3.7705324080 2.2209363390 -2.2587221250
H 2.2424284990 2.0111448340 -1.3406874060
H 3.4045501670 3.3150853500 -0.9436352140
C 4.2086234810 -0.2471782140 1.1305175520
N 3.4141322770 0.5697210370 0.2094019200
N 4.0577848740 1.4461456740 -0.3674752600
C 3.2977021140 2.2836782010 -1.2789554750
