24
1 1
C 1.0665221070 -0.7970647910 -1.4718467250
N -0.0508361560 0.1271540010 -1.1423717640
H -0.1588811500 0.1378442380 -0.0545774010
C 0.2482407660 1.5206249790 -1.5667006570
C -1.3410060450 -0.3509327020 -1.7064104500
H 1.9749851610 -0.4369529360 -0.9990037810
H 1.2044642980 -0.8337382710 -2.5495009230
H 0.8272792890 -1.7885235750 -1.0999083280
H 1.1739062080 1.8420550560 -1.0993263050
H -0.5648819360 2.1682928730 -1.2529407630
H 0.3506881360 1.5590114500 -2.6481516950
H -1.5390087110 -1.3526758390 -1.3377326190
H -1.2824281420 -0.3643631670 -2.7917222680
H -2.1350576840 0.3192409480 -1.3910777340
H 1.7699103640 0.0085224380 2.2398338210
H 0.9264899060 0.5817160490 3.6797554550
H 1.1076328470 1.6483782810 2.2782330930
H -1.0680938090 0.7354577300 2.2832327240
H -1.5997589460 -1.5508588310 2.0434940280
H 0.1264920540 -1.9334334030 2.0974062140
H -0.6826535510 -1.3196455770 3.5402702920
C 0.9388099210 0.6195911890 2.5887759210
N -0.3150337700 0.1190105940 1.9989005340
C -0.6390945970 -1.2449331140 2.4519942540
