21
1 1
C 0.6152568920 -1.2651114770 -1.1274099640
N -0.1400933530 -0.0140102700 -0.8462503760
H -0.2835354710 0.0402291060 0.2210727990
C 0.6289534130 1.1941522560 -1.2506412550
C -1.4912192510 -0.0378146900 -1.4699962660
H 1.5745084680 -1.2203841440 -0.6212301630
H 0.7691364220 -1.3629484540 -2.1987345170
H 0.0447137500 -2.1125664830 -0.7598597200
H 1.5858778730 1.1922516520 -0.7380219500
H 0.0658339190 2.0804814390 -0.9747702080
H 0.7879557960 1.1799710090 -2.3255796470
H -2.0324231350 -0.9067686140 -1.1084228470
H -1.3904681810 -0.0908012550 -2.5507099570
H -2.0239301770 0.8671983820 -1.1944556140
N -0.6145577690 0.1969617560 3.5993860870
H -1.2346222080 -0.5324793840 3.9344938850
H -1.0522244500 1.0692871270 3.8757140840
C 0.7030186740 0.0714042720 4.2639772680
H 1.3563151650 0.8705055220 3.9209500050
H 0.6374128410 0.1233596210 5.3498258590
H 1.1532681680 -0.8805984700 3.9923074810
