12
1 1
N -0.1486945780 -3.4095675990 0.0000000000
H -0.0879229260 -2.3324892110 0.0000000000
H 0.7890604820 -3.8078832080 0.0000000000
H -0.6455530720 -3.7291736370 -0.8299166540
H -0.6455530720 -3.7291736370 0.8299166540
H -1.1438328350 2.6578820300 0.9001439930
H -0.0469030940 3.7505605600 0.0000000000
H -1.1438328350 2.6578820300 -0.9001439930
C -0.5543093920 2.7954852550 0.0000000000
O 0.5447595560 1.8014394480 0.0000000000
C 0.2516280680 0.5793086240 0.0000000000
N 0.0458277170 -0.5565089380 0.0000000000
