24
1 1
N -1.8356321920 0.2810628950 0.6602701970
C -2.2167231930 -0.4460276280 -0.3832602270
N -1.2697537000 -1.0023184830 -1.1295741120
N -3.5096914130 -0.6081529590 -0.6759927340
H -0.8289610390 0.3475633780 0.8300427420
H -2.4970542730 0.7204046110 1.2731773410
H -0.3027700570 -0.8464828040 -0.8352362020
H -1.4857006180 -1.5740916490 -1.9249261350
H -4.2278619330 -0.1864672130 -0.1154984740
H -3.8007231950 -1.1544351450 -1.4663209120
H 4.0247645890 -0.1441288170 0.2647295620
H 4.0413412890 1.6172808890 0.1196087090
H 3.5901915820 0.8430136790 1.6430894430
H 1.7755643160 2.7973159200 -0.3326440530
H 2.5013591930 -1.8078313630 0.9702840520
H 2.0633195090 -0.8125184830 2.3579333910
H 0.8661169420 -1.8823859190 1.6275152670
H 2.2091510860 1.8111347500 -1.7075759810
H 0.5629228570 1.7180190560 -1.0504013240
C 2.0754894310 0.7374545320 0.1299006200
N 1.2448690790 -0.1582175740 0.5103923410
C 1.6978300940 -1.2160873960 1.4121104620
C 1.6135116560 1.8211739820 -0.7931043780
C 3.5146178900 0.7749605150 0.5568420880
