24
1 1
C 1.0665221070 -0.7970647910 -1.4718467250
N -0.0508361560 0.1271540010 -1.1423717640
H -0.1588811500 0.1378442380 -0.0545774010
C 0.2482407660 1.5206249790 -1.5667006570
C -1.3410060450 -0.3509327020 -1.7064104500
H 1.9749851610 -0.4369529360 -0.9990037810
H 1.2044642980 -0.8337382710 -2.5495009230
H 0.8272792890 -1.7885235750 -1.0999083280
H 1.1739062080 1.8420550560 -1.0993263050
H -0.5648819360 2.1682928730 -1.2529407630
H 0.3506881360 1.5590114500 -2.6481516950
H -1.5390087110 -1.3526758390 -1.3377326190
H -1.2824281420 -0.3643631670 -2.7917222680
H -2.1350576840 0.3192409480 -1.3910777340
H 1.8011408880 0.0122891670 1.8291382340
H 0.9577204300 0.5854827780 3.2690598680
H 1.1388633710 1.6521450100 1.8675375060
H -1.0368632850 0.7392244590 1.8725371370
H -1.5685284220 -1.5470921020 1.6327984410
H 0.1577225780 -1.9296666740 1.6867106270
H -0.6514230270 -1.3158788480 3.1295747050
C 0.9700404450 0.6233579180 2.1780803340
N -0.2838032460 0.1227773230 1.5882049470
C -0.6078640730 -1.2411663850 2.0412986670
