27
1 1
C -1.0107770600 1.7946171640 1.0141913300
N -0.0012344950 1.3622651790 0.0130084460
H -0.0004535050 0.2549530100 0.0025107370
C -0.3603755460 1.8175174960 -1.3552873400
C 1.3665504130 1.8021379440 0.3926773020
H -1.9842667350 1.4113131350 0.7240933750
H -1.0435347220 2.8805521470 1.0571533120
H -0.7366854840 1.3989838230 1.9873906230
H -1.3430003410 1.4325730940 -1.6103063410
H 0.3749050990 1.4393934840 -2.0589530430
H -0.3735030020 2.9041926370 -1.3890213620
H 1.6056384870 1.4076198010 1.3755058920
H 1.4101171440 2.8883263560 0.4143333860
H 2.0759052580 1.4229136870 -0.3365514830
H 1.0358261620 -2.8124271450 -1.0559544220
H 0.7258220500 -1.3405818660 -1.9868125990
H 1.9770874140 -1.3501823810 -0.7322329280
H 1.3482428880 -1.3744772660 1.6016227770
H 0.3772943710 -2.8366632180 1.3820672210
H -0.3639124550 -1.3796913780 2.0579287910
H -1.4048128250 -2.8215140260 -0.4072347860
H -2.0707915850 -1.3663743240 0.3464082650
C 0.9901814280 -1.7208896110 -1.0020842350
N 0.0009804730 -1.2702387560 -0.0120704820
C 0.3607480550 -1.7440936400 1.3324606650
C -1.3463969060 -1.7295953050 -0.3799046300
H -1.6099436750 -1.3482128360 -1.3644426770
