14
0 1
H 3.4517495320 -0.1730027990 0.1023918800
H 3.4683262320 1.5884069070 -0.0427289730
H 3.0171765250 0.8141396970 1.4807517610
H 1.2025492590 2.7684419380 -0.4949817350
H 1.9283441360 -1.8367053450 0.8079463700
H 1.4903044520 -0.8413924650 2.1955957090
H 0.2931018850 -1.9112599010 1.4651775850
H 1.6361360290 1.7822607680 -1.8699136630
H -0.0100922000 1.6891450740 -1.2127390060
C 1.5024743740 0.7085805500 -0.0324370620
N 0.6718540220 -0.1870915560 0.3480546590
C 1.1248150370 -1.2449613780 1.2497727800
C 1.0404965990 1.7923000000 -0.9554420600
C 2.9416028330 0.7460865330 0.3945044060
