14
1 1
N 0.1114728060 0.8905492600 -0.1376690430
C -0.8355354010 -0.0257878960 -0.0483202490
N -0.4956329070 -1.2958666510 0.1857771080
N -2.1246965790 0.2928958520 -0.1872630320
H 1.1123732360 0.6300330980 -0.0321638010
H -0.1270673840 1.8514359180 -0.3078960950
H 0.4705043670 -1.5467997130 0.2941787390
H -1.1823736370 -2.0244730140 0.2536926660
H -2.4094676720 1.2386624730 -0.3677125640
H -2.8483346790 -0.3993680430 -0.1141612690
N 4.6441250420 -0.3651947740 0.3508758730
H 5.0248281610 -0.9974615670 -0.3454989930
H 5.1456184950 0.5097121460 0.2326387690
H 4.9276554870 -0.7253850240 1.2561422480
