24
1 1
C 1.0665221070 -0.7970647910 -1.4718467250
N -0.0508361560 0.1271540010 -1.1423717640
H -0.1588811500 0.1378442380 -0.0545774010
C 0.2482407660 1.5206249790 -1.5667006570
C -1.3410060450 -0.3509327020 -1.7064104500
H 1.9749851610 -0.4369529360 -0.9990037810
H 1.2044642980 -0.8337382710 -2.5495009230
H 0.8272792890 -1.7885235750 -1.0999083280
H 1.1739062080 1.8420550560 -1.0993263050
H -0.5648819360 2.1682928730 -1.2529407630
H 0.3506881360 1.5590114500 -2.6481516950
H -1.5390087110 -1.3526758390 -1.3377326190
H -1.2824281420 -0.3643631670 -2.7917222680
H -2.1350576840 0.3192409480 -1.3910777340
H 1.8198792020 0.0145492040 1.5827208820
H 0.9764587440 0.5877428150 3.0226425160
H 1.1576016850 1.6544050470 1.6211201540
H -1.0181249710 0.7414844960 1.6261197850
H -1.5497901080 -1.5448320650 1.3863810890
H 0.1764608920 -1.9274066370 1.4402932750
H -0.6326847130 -1.3136188110 2.8831573530
C 0.9887787590 0.6256179550 1.9316629820
N -0.2650649320 0.1250373600 1.3417875950
C -0.5891257590 -1.2389063480 1.7948813150
