21
1 1
C 0.6152568920 -1.2651114770 -1.1274099640
N -0.1400933530 -0.0140102700 -0.8462503760
H -0.2835354710 0.0402291060 0.2210727990
C 0.6289534130 1.1941522560 -1.2506412550
C -1.4912192510 -0.0378146900 -1.4699962660
H 1.5745084680 -1.2203841440 -0.6212301630
H 0.7691364220 -1.3629484540 -2.1987345170
H 0.0447137500 -2.1125664830 -0.7598597200
H 1.5858778730 1.1922516520 -0.7380219500
H 0.0658339190 2.0804814390 -0.9747702080
H 0.7879557960 1.1799710090 -2.3255796470
H -2.0324231350 -0.9067686140 -1.1084228470
H -1.3904681810 -0.0908012550 -2.5507099570
H -2.0239301770 0.8671983820 -1.1944556140
N -0.4324955050 0.1107587980 1.7413137790
H -1.0525599440 -0.6186823420 2.0764215770
H -0.8701621860 0.9830841700 2.0176417760
C 0.8850809380 -0.0147986860 2.4059049600
H 1.5383774290 0.7843025640 2.0628776970
H 0.8194751050 0.0371566640 3.4917535510
H 1.3353304320 -0.9668014280 2.1342351730
