24
1 1
C 1.0665221070 -0.7970647910 -1.4718467250
N -0.0508361560 0.1271540010 -1.1423717640
H -0.1588811500 0.1378442380 -0.0545774010
C 0.2482407660 1.5206249790 -1.5667006570
C -1.3410060450 -0.3509327020 -1.7064104500
H 1.9749851610 -0.4369529360 -0.9990037810
H 1.2044642980 -0.8337382710 -2.5495009230
H 0.8272792890 -1.7885235750 -1.0999083280
H 1.1739062080 1.8420550560 -1.0993263050
H -0.5648819360 2.1682928730 -1.2529407630
H 0.3506881360 1.5590114500 -2.6481516950
H -1.5390087110 -1.3526758390 -1.3377326190
H -1.2824281420 -0.3643631670 -2.7917222680
H -2.1350576840 0.3192409480 -1.3910777340
H 1.7948947830 0.0115358210 1.9112773510
H 0.9514743250 0.5847294320 3.3511989850
H 1.1326172660 1.6513916640 1.9496766230
H -1.0431093900 0.7384711130 1.9546762540
H -1.5747745270 -1.5478454480 1.7149375580
H 0.1514764730 -1.9304200200 1.7688497440
H -0.6576691320 -1.3166321940 3.2117138220
C 0.9637943400 0.6226045720 2.2602194510
N -0.2900493510 0.1220239770 1.6703440640
C -0.6141101780 -1.2419197310 2.1234377840
