24
1 1
C -2.8974085810 0.2616335260 -0.7185192200
C -1.5771608340 0.1381316150 -0.4260539810
N -1.4514262790 0.2911344330 0.9383689500
H -0.5427723880 0.2467822440 1.4694780360
C -2.6463283340 0.5012417800 1.4711445840
N -3.5413064850 0.4873412350 0.4810637210
H -3.4243020080 0.2102642250 -1.6518884880
H -0.7272838610 -0.0423289550 -1.0567082570
H -2.8614658520 0.6556076440 2.5122270480
H -4.5328842860 0.6218288620 0.5999878820
H 1.1418893640 -2.2315585580 0.6572074410
H 2.2130215050 -0.6593565640 -3.1800848400
H 1.6956788510 -2.5876627570 -1.7158897570
H 1.6524718590 1.9916014340 0.1368634630
H 1.0974978050 -0.6589416630 2.4917186940
H 2.2055746000 1.6291993800 -2.2354443650
H 1.2933228680 0.9594338150 2.2922954190
C 1.9690993210 -0.5017540720 -2.1403184830
C 1.6778886650 -1.5836999050 -1.3176676610
C 1.3692768260 -1.3856648110 0.0219338550
C 1.3560455230 -0.0965333610 0.5469098210
C 1.6564219650 0.9892561060 -0.2706915990
C 1.9640351410 0.7828105850 -1.6092476370
N 0.8983783490 0.1232739910 1.8814487680
