16
1 1
C 0.0001434020 0.7166184200 2.9023245240
C 0.0002115650 1.1346984810 1.6105133580
N 0.0000549140 0.0073902890 0.8207764270
H 0.0000571870 -0.0061754570 -0.2208477480
C -0.0001061240 -1.0707017800 1.5903832800
N -0.0000542050 -0.6620157850 2.8610541360
H 0.0002168860 1.2645687880 3.8249060520
H 0.0003550360 2.1237483090 1.1942011010
H -0.0002528050 -2.0908858660 1.2541676520
H -0.0001465730 -1.2739363610 3.6617619190
H -0.0010446530 -0.9985840220 -4.6869887430
H 0.8874079720 0.5365115740 -4.6611062230
H -0.8867910950 0.5380738420 -4.6609751090
C -0.0001208780 0.0192410600 -4.3008647090
C -0.0000430190 -0.0050795880 -2.8518101450
N -0.0000195660 -0.0239754180 -1.7056844680
