20
1 1
N -1.4113147900 0.0159680820 0.7387102750
C -1.7722698660 -0.8547455080 -0.1909563450
N -0.8490740870 -1.2930701970 -1.0471593840
N -3.0295703610 -1.2907363680 -0.2820187090
H -0.4275544930 0.3120484130 0.7677684420
H -2.0721541940 0.3802695030 1.4010336950
H 0.0953320000 -0.9519321320 -0.9656166960
H -1.0628287030 -1.9613957790 -1.7645858930
H -3.7365087600 -0.9776813830 0.3588522980
H -3.3073839190 -1.9465639260 -0.9900318290
H 1.6734051780 -0.2834041480 2.4371116750
H 3.1407383760 -0.0891730970 1.4323889270
H 1.9944616680 -1.4348774490 1.1474172090
H 1.6576046840 2.0792163960 -1.9516205380
H 0.1295007760 1.8694248910 -1.0335858190
H 1.2916224440 3.1733654070 -0.6365336270
C 2.0956957580 -0.3888981570 1.4376191390
N 1.3012045540 0.4280010940 0.5165035070
N 1.9448571500 1.3044257310 -0.0603736730
C 1.1847743900 2.1419582580 -0.9718538880
