10
1 1
N -2.1328123050 0.4424911270 -0.1997535870
C -2.4025961610 -0.8037559830 0.1698736330
N -1.3962267950 -1.6206359580 0.4570185820
N -3.6662821780 -1.2281563000 0.2539303600
H -1.1629027780 0.7310897190 -0.2618026950
H -2.8611066950 1.0913111280 -0.4342842230
H -0.4483476210 -1.2703987840 0.3750232740
H -1.5531462510 -2.5714808070 0.7356818020
H -4.4361575610 -0.6198433150 0.0421597450
H -3.8837200330 -2.1676465220 0.5326386970
