24
1 1
C 0.2208278330 -1.4062436560 -1.8494366650
N -0.3041291450 -0.0789238620 -1.4230527940
H -0.1748044450 -0.0114915650 -0.3716315170
C 0.4618447700 1.0421262100 -2.0359905760
C -1.7649770190 0.0445075360 -1.6904450240
H 1.2740636320 -1.4682814060 -1.5944055360
H 0.0941023080 -1.5141098440 -2.9229409120
H -0.3287820920 -2.1856106590 -1.3309076200
H 1.5107656260 0.9363804180 -1.7775740040
H 0.0814403170 1.9820743970 -1.6485036250
H 0.3426393260 1.0101399710 -3.1152825710
H -2.2856423410 -0.7609594470 -1.1821939090
H -1.9406233630 -0.0196956940 -2.7605470840
H -2.1120540750 1.0025747170 -1.3165016700
H -1.8903365750 1.1830034910 1.4037543160
H -1.3157088700 0.3506623040 2.8780515610
H -2.0633772000 -0.5669758430 1.5380960680
H 2.5791673030 -1.0045748260 1.7370550640
H 2.0950113920 -0.1910709100 0.2163114920
H 2.7510171600 0.7331211620 1.6035475940
C -1.4271492670 0.2788634110 1.7992660930
N -0.1297934390 0.1001081340 1.1419768650
N 0.8256144730 0.0648971070 1.9140462170
C 2.1301146570 -0.1109022490 1.3047974820
