10
0 1
H -1.8929842810 1.1764388030 1.3147185280
H -1.3183565760 0.3440976160 2.7890157730
H -2.0660249060 -0.5735405310 1.4490602800
H 2.5765195970 -1.0111395140 1.6480192760
H 2.0923636860 -0.1976355980 0.1272757040
H 2.7483694540 0.7265564740 1.5145118060
C -1.4297969730 0.2722987230 1.7102303050
N -0.1324411450 0.0935434460 1.0529410770
N 0.8229667670 0.0583324190 1.8250104290
C 2.1274669510 -0.1174669370 1.2157616940
