12
1 1
N -0.1486945780 -3.4095675990 0.0000000000
H -0.0879229260 -2.3324892110 0.0000000000
H 0.7890604820 -3.8078832080 0.0000000000
H -0.6455530720 -3.7291736370 -0.8299166540
H -0.6455530720 -3.7291736370 0.8299166540
H -1.1742307080 2.2542501500 0.9001439930
H -0.0773009670 3.3469286800 0.0000000000
H -1.1742307080 2.2542501500 -0.9001439930
C -0.5847072650 2.3918533750 0.0000000000
O 0.5143616830 1.3978075680 0.0000000000
C 0.2212301950 0.1756767440 0.0000000000
N 0.0154298440 -0.9601408180 0.0000000000
