27
1 1
C -1.0107770600 1.7946171640 1.0141913300
N -0.0012344950 1.3622651790 0.0130084460
H -0.0004535050 0.2549530100 0.0025107370
C -0.3603755460 1.8175174960 -1.3552873400
C 1.3665504130 1.8021379440 0.3926773020
H -1.9842667350 1.4113131350 0.7240933750
H -1.0435347220 2.8805521470 1.0571533120
H -0.7366854840 1.3989838230 1.9873906230
H -1.3430003410 1.4325730940 -1.6103063410
H 0.3749050990 1.4393934840 -2.0589530430
H -0.3735030020 2.9041926370 -1.3890213620
H 1.6056384870 1.4076198010 1.3755058920
H 1.4101171440 2.8883263560 0.4143333860
H 2.0759052580 1.4229136870 -0.3365514830
H 1.0360525800 -3.0532468980 -1.0582567200
H 0.7260484680 -1.5814016190 -1.9891148970
H 1.9773138320 -1.5910021340 -0.7345352260
H 1.3484693060 -1.6152970190 1.5993204790
H 0.3775207890 -3.0774829710 1.3797649230
H -0.3636860370 -1.6205111310 2.0556264930
H -1.4045864070 -3.0623337790 -0.4095370840
H -2.0705651670 -1.6071940770 0.3441059670
C 0.9904078460 -1.9617093640 -1.0043865330
N 0.0012068910 -1.5110585090 -0.0143727800
C 0.3609744730 -1.9849133930 1.3301583670
C -1.3461704880 -1.9704150580 -0.3822069280
H -1.6097172570 -1.5890325890 -1.3667449750
