16
1 1
C 0.0001434020 0.7166184200 2.9023245240
C 0.0002115650 1.1346984810 1.6105133580
N 0.0000549140 0.0073902890 0.8207764270
H 0.0000571870 -0.0061754570 -0.2208477480
C -0.0001061240 -1.0707017800 1.5903832800
N -0.0000542050 -0.6620157850 2.8610541360
H 0.0002168860 1.2645687880 3.8249060520
H 0.0003550360 2.1237483090 1.1942011010
H -0.0002528050 -2.0908858660 1.2541676520
H -0.0001465730 -1.2739363610 3.6617619190
H -0.0011484960 -1.0226663210 -6.6958854810
H 0.8873041290 0.5124292740 -6.6700029610
H -0.8868949380 0.5139915430 -6.6698718470
C -0.0002247210 -0.0048412400 -6.3097614470
C -0.0001468620 -0.0291618870 -4.8607068830
N -0.0001234090 -0.0480577170 -3.7145812060
