10
1 1
  N   -1.411314790   0.015968082   0.738710275
  C   -1.772269866  -0.854745508  -0.190956345
  N   -0.849074087  -1.293070197  -1.047159384
  N   -3.029570361  -1.290736368  -0.282018709
  H   -0.427554493   0.312048413   0.767768442
  H   -2.072154194   0.380269503   1.401033695
  H    0.095332000  -0.951932132  -0.965616696
  H   -1.062828703  -1.961395779  -1.764585893
  H   -3.736508760  -0.977681383   0.358852298
  H   -3.307383919  -1.946563926  -0.990031829
