14
1 1
N 0.1114728060 0.8905492600 -0.1376690430
C -0.8355354010 -0.0257878960 -0.0483202490
N -0.4956329070 -1.2958666510 0.1857771080
N -2.1246965790 0.2928958520 -0.1872630320
H 1.1123732360 0.6300330980 -0.0321638010
H -0.1270673840 1.8514359180 -0.3078960950
H 0.4705043670 -1.5467997130 0.2941787390
H -1.1823736370 -2.0244730140 0.2536926660
H -2.4094676720 1.2386624730 -0.3677125640
H -2.8483346790 -0.3993680430 -0.1141612690
N 2.6133677540 0.2070612520 0.1306280600
H 2.9940708730 -0.4252055410 -0.5657468060
H 3.1148612070 1.0819681720 0.0123909560
H 2.8968981990 -0.1531289980 1.0358944350
