16
1 1
C 0.0001434020 0.7166184200 2.9023245240
C 0.0002115650 1.1346984810 1.6105133580
N 0.0000549140 0.0073902890 0.8207764270
H 0.0000571870 -0.0061754570 -0.2208477480
C -0.0001061240 -1.0707017800 1.5903832800
N -0.0000542050 -0.6620157850 2.8610541360
H 0.0002168860 1.2645687880 3.8249060520
H 0.0003550360 2.1237483090 1.1942011010
H -0.0002528050 -2.0908858660 1.2541676520
H -0.0001465730 -1.2739363610 3.6617619190
H -0.0010491680 -0.9996310780 -4.7743320790
H 0.8874034570 0.5354645170 -4.7484495590
H -0.8867956100 0.5370267860 -4.7483184450
C -0.0001253930 0.0181940030 -4.3882080450
C -0.0000475340 -0.0061266440 -2.9391534810
N -0.0000240810 -0.0250224740 -1.7930278040
