20
1 1
N -1.4113147900 0.0159680820 0.7387102750
C -1.7722698660 -0.8547455080 -0.1909563450
N -0.8490740870 -1.2930701970 -1.0471593840
N -3.0295703610 -1.2907363680 -0.2820187090
H -0.4275544930 0.3120484130 0.7677684420
H -2.0721541940 0.3802695030 1.4010336950
H 0.0953320000 -0.9519321320 -0.9656166960
H -1.0628287030 -1.9613957790 -1.7645858930
H -3.7365087600 -0.9776813830 0.3588522980
H -3.3073839190 -1.9465639260 -0.9900318290
H 1.9615316850 -0.2640787010 2.3952341860
H 3.4288648830 -0.0698476500 1.3905114380
H 2.2825881750 -1.4155520020 1.1055397200
H 1.9457311920 2.0985418430 -1.9934980270
H 0.4176272830 1.8887503380 -1.0754633080
H 1.5797489510 3.1926908540 -0.6784111160
C 2.3838222650 -0.3695727100 1.3957416500
N 1.5893310610 0.4473265410 0.4746260180
N 2.2329836580 1.3237511780 -0.1022511620
C 1.4729008980 2.1612837050 -1.0137313770
