10
0 1
  H    1.865489516  -0.270520517   2.409193349
  H    3.332822714  -0.076289466   1.404470601
  H    2.186546006  -1.421993818   1.119498883
  H    1.849689023   2.092100027  -1.979538864
  H    0.321585114   1.882308522  -1.061504145
  H    1.483706782   3.186249038  -0.664451953
  C    2.287780096  -0.376014526   1.409700813
  N    1.493288892   0.440884725   0.488585181
  N    2.136941489   1.317309362  -0.088291999
  C    1.376858729   2.154841889  -0.999772214
