24
1 1
N -1.8356321920 0.2810628950 0.6602701970
C -2.2167231930 -0.4460276280 -0.3832602270
N -1.2697537000 -1.0023184830 -1.1295741120
N -3.5096914130 -0.6081529590 -0.6759927340
H -0.8289610390 0.3475633780 0.8300427420
H -2.4970542730 0.7204046110 1.2731773410
H -0.3027700570 -0.8464828040 -0.8352362020
H -1.4857006180 -1.5740916490 -1.9249261350
H -4.2278619330 -0.1864672130 -0.1154984740
H -3.8007231950 -1.1544351450 -1.4663209120
H 5.7438097580 -0.0575068710 0.7517426060
H 5.7603864580 1.7039028350 0.6066217530
H 5.3092367510 0.9296356250 2.1301024870
H 3.4946094850 2.8839378660 0.1543689910
H 4.2204043620 -1.7212094170 1.4572970960
H 3.7823646780 -0.7258965370 2.8449464350
H 2.5851621110 -1.7957639730 2.1145283110
H 3.9281962550 1.8977566960 -1.2205629370
H 2.2819680260 1.8046410020 -0.5633882800
C 3.7945346000 0.8240764780 0.6169136640
N 2.9639142480 -0.0715956280 0.9974053850
C 3.4168752630 -1.1294654500 1.8991235060
C 3.3325568250 1.9077959280 -0.3060913340
C 5.2336630590 0.8615824610 1.0438551320
