24
1 1
N -1.8356321920 0.2810628950 0.6602701970
C -2.2167231930 -0.4460276280 -0.3832602270
N -1.2697537000 -1.0023184830 -1.1295741120
N -3.5096914130 -0.6081529590 -0.6759927340
H -0.8289610390 0.3475633780 0.8300427420
H -2.4970542730 0.7204046110 1.2731773410
H -0.3027700570 -0.8464828040 -0.8352362020
H -1.4857006180 -1.5740916490 -1.9249261350
H -4.2278619330 -0.1864672130 -0.1154984740
H -3.8007231950 -1.1544351450 -1.4663209120
H 3.9292620790 -0.1489411480 0.2376732810
H 3.9458387790 1.6124685580 0.0925524280
H 3.4946890720 0.8382013480 1.6160331620
H 1.6800618060 2.7925035890 -0.3597003340
H 2.4058566830 -1.8126436940 0.9432277710
H 1.9678169990 -0.8173308140 2.3308771100
H 0.7706144320 -1.8871982500 1.6004589860
H 2.1136485760 1.8063224190 -1.7346322620
H 0.4674203470 1.7132067250 -1.0774576050
C 1.9799869210 0.7326422010 0.1028443390
N 1.1493665690 -0.1630299050 0.4833360600
C 1.6023275840 -1.2208997270 1.3850541810
C 1.5180091460 1.8163616510 -0.8201606590
C 3.4191153800 0.7701481840 0.5297858070
