20
1 1
N -1.4113147900 0.0159680820 0.7387102750
C -1.7722698660 -0.8547455080 -0.1909563450
N -0.8490740870 -1.2930701970 -1.0471593840
N -3.0295703610 -1.2907363680 -0.2820187090
H -0.4275544930 0.3120484130 0.7677684420
H -2.0721541940 0.3802695030 1.4010336950
H 0.0953320000 -0.9519321320 -0.9656166960
H -1.0628287030 -1.9613957790 -1.7645858930
H -3.7365087600 -0.9776813830 0.3588522980
H -3.3073839190 -1.9465639260 -0.9900318290
H 1.4813208390 -0.2962877790 2.4650300010
H 2.9486540370 -0.1020567280 1.4603072530
H 1.8023773290 -1.4477610800 1.1753355350
H 1.4655203460 2.0663327650 -1.9237022120
H -0.0625835630 1.8565412600 -1.0056674930
H 1.0995381050 3.1604817760 -0.6086153010
C 1.9036114190 -0.4017817880 1.4655374650
N 1.1091202150 0.4151174630 0.5444218330
N 1.7527728120 1.2915421000 -0.0324553470
C 0.9926900520 2.1290746270 -0.9439355620
