24
1 1
C 0.2208278330 -1.4062436560 -1.8494366650
N -0.3041291450 -0.0789238620 -1.4230527940
H -0.1748044450 -0.0114915650 -0.3716315170
C 0.4618447700 1.0421262100 -2.0359905760
C -1.7649770190 0.0445075360 -1.6904450240
H 1.2740636320 -1.4682814060 -1.5944055360
H 0.0941023080 -1.5141098440 -2.9229409120
H -0.3287820920 -2.1856106590 -1.3309076200
H 1.5107656260 0.9363804180 -1.7775740040
H 0.0814403170 1.9820743970 -1.6485036250
H 0.3426393260 1.0101399710 -3.1152825710
H -2.2856423410 -0.7609594470 -1.1821939090
H -1.9406233630 -0.0196956940 -2.7605470840
H -2.1120540750 1.0025747170 -1.3165016700
H -1.8770980440 1.2158269320 1.8489332510
H -1.3024703380 0.3834857450 3.3232304960
H -2.0501386680 -0.5341524020 1.9832750030
H 2.5924058340 -0.9717513850 2.1822339990
H 2.1082499240 -0.1582474690 0.6614904270
H 2.7642556920 0.7659446030 2.0487265290
C -1.4139107360 0.3116868520 2.2444450280
N -0.1165549080 0.1329315750 1.5871558000
N 0.8388530040 0.0977205480 2.3592251520
C 2.1433531880 -0.0780788080 1.7499764170
