24
1 1
C -2.8974085810 0.2616335260 -0.7185192200
C -1.5771608340 0.1381316150 -0.4260539810
N -1.4514262790 0.2911344330 0.9383689500
H -0.5427723880 0.2467822440 1.4694780360
C -2.6463283340 0.5012417800 1.4711445840
N -3.5413064850 0.4873412350 0.4810637210
H -3.4243020080 0.2102642250 -1.6518884880
H -0.7272838610 -0.0423289550 -1.0567082570
H -2.8614658520 0.6556076440 2.5122270480
H -4.5328842860 0.6218288620 0.5999878820
H 2.2439458100 -2.3260060460 0.9722438820
H 3.3150779500 -0.7538040520 -2.8650483980
H 2.7977352960 -2.6821102440 -1.4008533160
H 2.7545283040 1.8971539460 0.4518999040
H 2.1995542500 -0.7533891500 2.8067551360
H 3.3076310460 1.5347518920 -1.9204079240
H 2.3953793140 0.8649863280 2.6073318600
C 3.0711557660 -0.5962015600 -1.8252820420
C 2.7799451100 -1.6781473920 -1.0026312200
C 2.4713332720 -1.4801122980 0.3369702960
C 2.4581019680 -0.1909808480 0.8619462620
C 2.7584784100 0.8948086180 0.0443448430
C 3.0660915860 0.6883630980 -1.2942111960
N 2.0004347940 0.0288265040 2.1964852100
