12
1 1
N 0.1116208550 -3.4349020610 0.0000000000
H 0.0825956150 -2.3847210380 0.0000000000
H -0.3587576850 -3.7918140280 -0.8317495100
H -0.3587576850 -3.7918140280 0.8317495100
H 1.0809162130 -3.7524972200 0.0000000000
H 1.0419085660 3.5471159740 -0.8935791860
H 1.0419085660 3.5471159740 0.8935791860
H -0.1532512280 4.5089688540 0.0000000000
C 0.4219884580 3.5919539820 0.0000000000
N -0.5545135080 2.4840730200 0.0000000000
N -0.2047453300 1.3411522560 0.0000000000
N -0.0079246310 0.2195095920 0.0000000000
