12
1 1
N -0.1486945780 -3.4095675990 0.0000000000
H -0.0879229260 -2.3324892110 0.0000000000
H 0.7890604820 -3.8078832080 0.0000000000
H -0.6455530720 -3.7291736370 -0.8299166540
H -0.6455530720 -3.7291736370 0.8299166540
H -1.1499124090 2.5771556540 0.9001439930
H -0.0529826680 3.6698341840 0.0000000000
H -1.1499124090 2.5771556540 -0.9001439930
C -0.5603889660 2.7147588790 0.0000000000
O 0.5386799820 1.7207130720 0.0000000000
C 0.2455484940 0.4985822480 0.0000000000
N 0.0397481430 -0.6372353140 0.0000000000
