24
1 1
C 1.0665221070 -0.7970647910 -1.4718467250
N -0.0508361560 0.1271540010 -1.1423717640
H -0.1588811500 0.1378442380 -0.0545774010
C 0.2482407660 1.5206249790 -1.5667006570
C -1.3410060450 -0.3509327020 -1.7064104500
H 1.9749851610 -0.4369529360 -0.9990037810
H 1.2044642980 -0.8337382710 -2.5495009230
H 0.8272792890 -1.7885235750 -1.0999083280
H 1.1739062080 1.8420550560 -1.0993263050
H -0.5648819360 2.1682928730 -1.2529407630
H 0.3506881360 1.5590114500 -2.6481516950
H -1.5390087110 -1.3526758390 -1.3377326190
H -1.2824281420 -0.3643631670 -2.7917222680
H -2.1350576840 0.3192409480 -1.3910777340
H 1.8136330980 0.0137958580 1.6648599990
H 0.9702126400 0.5869894700 3.1047816330
H 1.1513555810 1.6536517020 1.7032592710
H -1.0243710750 0.7407311500 1.7082589020
H -1.5560362120 -1.5455854100 1.4685202060
H 0.1702147880 -1.9281599820 1.5224323920
H -0.6389308170 -1.3143721560 2.9652964700
C 0.9825326550 0.6248646100 2.0138020990
N -0.2713110360 0.1242840140 1.4239267120
C -0.5953718630 -1.2396596940 1.8770204320
