12
1 1
N -0.1486945780 -3.4095675990 0.0000000000
H -0.0879229260 -2.3324892110 0.0000000000
H 0.7890604820 -3.8078832080 0.0000000000
H -0.6455530720 -3.7291736370 -0.8299166540
H -0.6455530720 -3.7291736370 0.8299166540
H -1.1681511330 2.3349765260 0.9001439930
H -0.0712213920 3.4276550560 0.0000000000
H -1.1681511330 2.3349765260 -0.9001439930
C -0.5786276900 2.4725797510 0.0000000000
O 0.5204412580 1.4785339440 0.0000000000
C 0.2273097700 0.2564031200 0.0000000000
N 0.0215094190 -0.8794144420 0.0000000000
