12
1 1
N 0.1116208550 -3.4349020610 0.0000000000
H 0.0825956150 -2.3847210380 0.0000000000
H -0.3587576850 -3.7918140280 -0.8317495100
H -0.3587576850 -3.7918140280 0.8317495100
H 1.0809162130 -3.7524972200 0.0000000000
H 1.0750993240 2.5922314100 -0.8935791860
H 1.0750993240 2.5922314100 0.8935791860
H -0.1200604700 3.5540842890 0.0000000000
C 0.4551792160 2.6370694180 0.0000000000
N -0.5213227500 1.5291884550 0.0000000000
N -0.1715545730 0.3862676920 0.0000000000
N 0.0252661260 -0.7353749730 0.0000000000
