18
1 1
C -1.2327254750 -0.8241103250 -0.7107621110
N 0.0000028830 -0.3828339640 -0.0000029080
H -0.0000203460 0.6805658680 0.0000008010
C 0.0008387820 -0.8241024190 1.4229576720
C 1.2319201430 -0.8240695860 -0.7122038310
H -2.1006064380 -0.4349785740 -0.1874670620
H -1.2684874690 -1.9098332230 -0.7277964140
H -1.2116179860 -0.4404370290 -1.7260514330
H -0.8889913990 -0.4404491810 1.9123172980
H 0.8879512470 -0.4349480640 1.9129212500
H 0.0039896570 -1.9098247770 1.4624433190
H 1.2126666340 -0.4349339250 -1.7254551250
H 1.2645820210 -1.9097906880 -0.7346683660
H 2.1006188660 -0.4403755930 -0.1862762350
N -0.0000307460 2.4424085300 0.0000099410
H -0.4680138880 2.8318669180 -0.8119263060
H -0.4691995500 2.8318620210 0.8112637300
H 0.9371175040 2.8318679820 0.0006952980
