27
1 1
C -1.0107770600 1.7946171640 1.0141913300
N -0.0012344950 1.3622651790 0.0130084460
H -0.0004535050 0.2549530100 0.0025107370
C -0.3603755460 1.8175174960 -1.3552873400
C 1.3665504130 1.8021379440 0.3926773020
H -1.9842667350 1.4113131350 0.7240933750
H -1.0435347220 2.8805521470 1.0571533120
H -0.7366854840 1.3989838230 1.9873906230
H -1.3430003410 1.4325730940 -1.6103063410
H 0.3749050990 1.4393934840 -2.0589530430
H -0.3735030020 2.9041926370 -1.3890213620
H 1.6056384870 1.4076198010 1.3755058920
H 1.4101171440 2.8883263560 0.4143333860
H 2.0759052580 1.4229136870 -0.3365514830
H 1.0356752170 -2.6518806430 -1.0544195570
H 0.7256711050 -1.1800353640 -1.9852777340
H 1.9769364690 -1.1896358790 -0.7306980630
H 1.3480919430 -1.2139307640 1.6031576420
H 0.3771434260 -2.6761167160 1.3836020860
H -0.3640634000 -1.2191448760 2.0594636560
H -1.4049637700 -2.6609675240 -0.4056999210
H -2.0709425300 -1.2058278220 0.3479431300
C 0.9900304830 -1.5603431090 -1.0005493700
N 0.0008295280 -1.1096922540 -0.0105356170
C 0.3605971100 -1.5835471380 1.3339955300
C -1.3465478510 -1.5690488030 -0.3783697650
H -1.6100946200 -1.1876663340 -1.3629078120
