20
1 1
N -1.4113147900 0.0159680820 0.7387102750
C -1.7722698660 -0.8547455080 -0.1909563450
N -0.8490740870 -1.2930701970 -1.0471593840
N -3.0295703610 -1.2907363680 -0.2820187090
H -0.4275544930 0.3120484130 0.7677684420
H -2.0721541940 0.3802695030 1.4010336950
H 0.0953320000 -0.9519321320 -0.9656166960
H -1.0628287030 -1.9613957790 -1.7645858930
H -3.7365087600 -0.9776813830 0.3588522980
H -3.3073839190 -1.9465639260 -0.9900318290
H 1.8654895160 -0.2705205170 2.4091933490
H 3.3328227140 -0.0762894660 1.4044706010
H 2.1865460060 -1.4219938180 1.1194988830
H 1.8496890230 2.0921000270 -1.9795388640
H 0.3215851140 1.8823085220 -1.0615041450
H 1.4837067820 3.1862490380 -0.6644519530
C 2.2877800960 -0.3760145260 1.4097008130
N 1.4932888920 0.4408847250 0.4885851810
N 2.1369414890 1.3173093620 -0.0882919990
C 1.3768587290 2.1548418890 -0.9997722140
