16
1 1
C 0.0001434020 0.7166184200 2.9023245240
C 0.0002115650 1.1346984810 1.6105133580
N 0.0000549140 0.0073902890 0.8207764270
H 0.0000571870 -0.0061754570 -0.2208477480
C -0.0001061240 -1.0707017800 1.5903832800
N -0.0000542050 -0.6620157850 2.8610541360
H 0.0002168860 1.2645687880 3.8249060520
H 0.0003550360 2.1237483090 1.1942011010
H -0.0002528050 -2.0908858660 1.2541676520
H -0.0001465730 -1.2739363610 3.6617619190
H -0.0011033470 -1.0121957560 -5.8224521160
H 0.8873492780 0.5228998390 -5.7965695960
H -0.8868497890 0.5244621080 -5.7964384820
C -0.0001795720 0.0056293250 -5.4363280820
C -0.0001017130 -0.0186913220 -3.9872735180
N -0.0000782600 -0.0375871520 -2.8411478420
