24
1 1
C -2.8974085810 0.2616335260 -0.7185192200
C -1.5771608340 0.1381316150 -0.4260539810
N -1.4514262790 0.2911344330 0.9383689500
H -0.5427723880 0.2467822440 1.4694780360
C -2.6463283340 0.5012417800 1.4711445840
N -3.5413064850 0.4873412350 0.4810637210
H -3.4243020080 0.2102642250 -1.6518884880
H -0.7272838610 -0.0423289550 -1.0567082570
H -2.8614658520 0.6556076440 2.5122270480
H -4.5328842860 0.6218288620 0.5999878820
H 3.0916815370 -2.3986579590 1.2145796070
H 4.1628136780 -0.8264559650 -2.6227126740
H 3.6454710240 -2.7547621580 -1.1585175910
H 3.6022640320 1.8245020330 0.6942356290
H 3.0472899780 -0.8260410640 3.0490908600
H 4.1553667730 1.4620999790 -1.6780721990
H 3.2431150410 0.7923344140 2.8496675850
C 3.9188914940 -0.6688534730 -1.5829463170
C 3.6276808380 -1.7507993060 -0.7602954950
C 3.3190689990 -1.5527642120 0.5793060210
C 3.3058376960 -0.2636327620 1.1042819870
C 3.6062141380 0.8221567050 0.2866805670
C 3.9138273140 0.6157111840 -1.0518754710
N 2.8481705220 -0.0438254100 2.4388209340
