24
1 1
C 0.2208278330 -1.4062436560 -1.8494366650
N -0.3041291450 -0.0789238620 -1.4230527940
H -0.1748044450 -0.0114915650 -0.3716315170
C 0.4618447700 1.0421262100 -2.0359905760
C -1.7649770190 0.0445075360 -1.6904450240
H 1.2740636320 -1.4682814060 -1.5944055360
H 0.0941023080 -1.5141098440 -2.9229409120
H -0.3287820920 -2.1856106590 -1.3309076200
H 1.5107656260 0.9363804180 -1.7775740040
H 0.0814403170 1.9820743970 -1.6485036250
H 0.3426393260 1.0101399710 -3.1152825710
H -2.2856423410 -0.7609594470 -1.1821939090
H -1.9406233630 -0.0196956940 -2.7605470840
H -2.1120540750 1.0025747170 -1.3165016700
H -1.8929842810 1.1764388030 1.3147185280
H -1.3183565760 0.3440976160 2.7890157730
H -2.0660249060 -0.5735405310 1.4490602800
H 2.5765195970 -1.0111395140 1.6480192760
H 2.0923636860 -0.1976355980 0.1272757040
H 2.7483694540 0.7265564740 1.5145118060
C -1.4297969730 0.2722987230 1.7102303050
N -0.1324411450 0.0935434460 1.0529410770
N 0.8229667670 0.0583324190 1.8250104290
C 2.1274669510 -0.1174669370 1.2157616940
