12
1 0
  N   -0.148694578  -3.409567599   0.000000000
  H   -0.087922926  -2.332489211   0.000000000
  H    0.789060482  -3.807883208   0.000000000
  H   -0.645553072  -3.729173637  -0.829916654
  H   -0.645553072  -3.729173637   0.829916654
  H   -1.168151133   2.334976526   0.900143993
  H   -0.071221392   3.427655056   0.000000000
  H   -1.168151133   2.334976526  -0.900143993
  C   -0.578627690   2.472579751   0.000000000
  O    0.520441258   1.478533944   0.000000000
  C    0.227309770   0.256403120   0.000000000
  N    0.021509419  -0.879414442   0.000000000
