12
-1 1
  N    0.111620855  -3.434902061   0.000000000
  H    0.082595615  -2.384721038   0.000000000
  H   -0.358757685  -3.791814028  -0.831749510
  H   -0.358757685  -3.791814028   0.831749510
  H    1.080916213  -3.752497220   0.000000000
  H    1.069064640   2.765846786  -0.893579186
  H    1.069064640   2.765846786   0.893579186
  H   -0.126095154   3.727699665   0.000000000
  C    0.449144532   2.810684794   0.000000000
  N   -0.527357434   1.702803831   0.000000000
  N   -0.177589257   0.559883068   0.000000000
  N    0.019231442  -0.561759597   0.000000000
