24
1 1
N -1.8356321920 0.2810628950 0.6602701970
C -2.2167231930 -0.4460276280 -0.3832602270
N -1.2697537000 -1.0023184830 -1.1295741120
N -3.5096914130 -0.6081529590 -0.6759927340
H -0.8289610390 0.3475633780 0.8300427420
H -2.4970542730 0.7204046110 1.2731773410
H -0.3027700570 -0.8464828040 -0.8352362020
H -1.4857006180 -1.5740916490 -1.9249261350
H -4.2278619330 -0.1864672130 -0.1154984740
H -3.8007231950 -1.1544351450 -1.4663209120
H 3.5472520420 -0.1681904690 0.1294481600
H 3.5638287420 1.5932192370 -0.0156726930
H 3.1126790350 0.8189520270 1.5078080410
H 1.2980517690 2.7732542680 -0.4679254550
H 2.0238466460 -1.8318930150 0.8350026500
H 1.5858069620 -0.8365801350 2.2226519890
H 0.3886043950 -1.9064475710 1.4922338650
H 1.7316385390 1.7870730980 -1.8428573830
H 0.0854103100 1.6939574040 -1.1856827260
C 1.5979768840 0.7133928800 -0.0053807820
N 0.7673565320 -0.1822792260 0.3751109390
C 1.2203175470 -1.2401490480 1.2768290600
C 1.1359991090 1.7971123300 -0.9283857800
C 3.0371053430 0.7508988630 0.4215606860
