24
1 1
C -2.8974085810 0.2616335260 -0.7185192200
C -1.5771608340 0.1381316150 -0.4260539810
N -1.4514262790 0.2911344330 0.9383689500
H -0.5427723880 0.2467822440 1.4694780360
C -2.6463283340 0.5012417800 1.4711445840
N -3.5413064850 0.4873412350 0.4810637210
H -3.4243020080 0.2102642250 -1.6518884880
H -0.7272838610 -0.0423289550 -1.0567082570
H -2.8614658520 0.6556076440 2.5122270480
H -4.5328842860 0.6218288620 0.5999878820
H 1.3962100820 -2.2533541320 0.7299081580
H 2.4673422230 -0.6811521380 -3.1073841230
H 1.9499995690 -2.6094583310 -1.6431890400
H 1.9067925770 1.9698058600 0.2095641800
H 1.3518185230 -0.6807372370 2.5644194110
H 2.4598953180 1.6074038060 -2.1627436480
H 1.5476435860 0.9376382410 2.3649961360
C 2.2234200390 -0.5235496460 -2.0676177660
C 1.9322093830 -1.6054954790 -1.2449669440
C 1.6235975440 -1.4074603850 0.0946345720
C 1.6103662410 -0.1183289350 0.6196105380
C 1.9107426830 0.9674605320 -0.1979908820
C 2.2183558590 0.7610150110 -1.5365469200
N 1.1526990670 0.1014784170 1.9541494850
