21
1 1
C 0.8045175140 -1.3736748600 -1.9663250780
N 0.1365092330 -0.1134162950 -1.5295797090
H 0.2288676200 -0.0571484680 -0.4879996520
C 0.8004276180 1.0938219420 -2.1015459820
C -1.3251028980 -0.1332811020 -1.8311751210
H 1.8531727740 -1.3310539420 -1.6897517390
H 0.7098584360 -1.4708292740 -3.0440185970
H 0.3259322180 -2.2139217030 -1.4735498540
H 1.8477184480 1.0883217530 -1.8168560160
H 0.3157381350 1.9814015060 -1.7076835180
H 0.7101314080 1.0695352220 -3.1837213680
H -1.7721393350 -0.9967203770 -1.3486207890
H -1.4651777780 -0.1957272880 -2.9064422610
H -1.7754642210 0.7787653210 -1.4521513910
H 1.4333575320 -0.9686231740 2.9016787120
H 1.7239413880 0.7867562320 2.8000644020
H 2.3603918410 -0.2955236020 1.5519275300
C 1.5311428260 -0.1191290700 2.2278248860
N 0.3181684660 0.0328634020 1.3871815370
N -0.7302600460 0.2453315840 2.0140048090
N -1.7265820430 0.4401357600 2.4915253150
