24
1 1
C 0.2208278330 -1.4062436560 -1.8494366650
N -0.3041291450 -0.0789238620 -1.4230527940
H -0.1748044450 -0.0114915650 -0.3716315170
C 0.4618447700 1.0421262100 -2.0359905760
C -1.7649770190 0.0445075360 -1.6904450240
H 1.2740636320 -1.4682814060 -1.5944055360
H 0.0941023080 -1.5141098440 -2.9229409120
H -0.3287820920 -2.1856106590 -1.3309076200
H 1.5107656260 0.9363804180 -1.7775740040
H 0.0814403170 1.9820743970 -1.6485036250
H 0.3426393260 1.0101399710 -3.1152825710
H -2.2856423410 -0.7609594470 -1.1821939090
H -1.9406233630 -0.0196956940 -2.7605470840
H -2.1120540750 1.0025747170 -1.3165016700
H -1.8797457500 1.2092622440 1.7598974640
H -1.3051180450 0.3769210570 3.2341947090
H -2.0527863750 -0.5407170900 1.8942392160
H 2.5897581280 -0.9783160730 2.0931982120
H 2.1056022170 -0.1648121570 0.5724546400
H 2.7616079850 0.7593799150 1.9596907420
C -1.4165584420 0.3051221640 2.1554092410
N -0.1192026140 0.1263668870 1.4981200130
N 0.8362052980 0.0911558600 2.2701893650
C 2.1407054820 -0.0846434960 1.6609406300
