12
1 1
N -0.1486945780 -3.4095675990 0.0000000000
H -0.0879229260 -2.3324892110 0.0000000000
H 0.7890604820 -3.8078832080 0.0000000000
H -0.6455530720 -3.7291736370 -0.8299166540
H -0.6455530720 -3.7291736370 0.8299166540
H -1.0951962370 3.3036930380 0.9001439930
H 0.0017335040 4.3963715680 0.0000000000
H -1.0951962370 3.3036930380 -0.9001439930
C -0.5056727940 3.4412962640 0.0000000000
O 0.5933961540 2.4472504560 0.0000000000
C 0.3002646660 1.2251196320 0.0000000000
N 0.0944643150 0.0893020700 0.0000000000
