16
1 1
C 0.0001434020 0.7166184200 2.9023245240
C 0.0002115650 1.1346984810 1.6105133580
N 0.0000549140 0.0073902890 0.8207764270
H 0.0000571870 -0.0061754570 -0.2208477480
C -0.0001061240 -1.0707017800 1.5903832800
N -0.0000542050 -0.6620157850 2.8610541360
H 0.0002168860 1.2645687880 3.8249060520
H 0.0003550360 2.1237483090 1.1942011010
H -0.0002528050 -2.0908858660 1.2541676520
H -0.0001465730 -1.2739363610 3.6617619190
H -0.0010807720 -1.0069604740 -5.3857354340
H 0.8873718520 0.5281351220 -5.3598529140
H -0.8868272140 0.5296973900 -5.3597218000
C -0.0001569980 0.0108646080 -4.9996114000
C -0.0000791380 -0.0134560400 -3.5505568360
N -0.0000556860 -0.0323518700 -2.4044311590
