20
1 1
C 0.4482416220 -1.1102999420 -2.1274302800
N -0.1648785520 0.1131379380 -1.5374627070
H -0.0549770800 0.0391443550 -0.4969337980
C 0.5472598860 1.3509658280 -1.9633884000
C -1.6267554650 0.1905016030 -1.8162072430
H 1.4959926200 -1.1482850370 -1.8467087370
H 0.3539395730 -1.0708746740 -3.2088756200
H -0.0680686530 -1.9831914960 -1.7407600030
H 1.5931930800 1.2674899630 -1.6857473610
H 0.1003878190 2.2034213050 -1.4617410830
H 0.4558444870 1.4628214210 -3.0400089210
H -2.1047787170 -0.7064141160 -1.4353351260
H -1.7820401710 0.2682095600 -2.8885076900
H -2.0335908590 1.0643517190 -1.3173119480
H 1.2095957100 0.4139931650 6.1519039660
H -0.3597534630 -0.4145914010 6.2604643850
H 1.1292499850 -1.3577678830 6.0270855890
C 0.3430127760 -0.2337929770 3.2367273120
N 0.4673284020 -0.3197259660 4.3805704470
C 0.6211046730 -0.4260893130 5.7923972850
