16
1 1
C -2.7746308140 -0.0429435220 -1.2697101320
C -1.4266283110 -0.0272942990 -1.4323413620
N -0.8676753990 -0.0119952440 -0.1746590190
H 0.1577285980 0.0021653530 0.0390251850
C -1.8297240490 -0.0178854630 0.7357902060
N -2.9985551560 -0.0366770190 0.0912263460
H -3.5750144030 -0.0576174220 -1.9843213040
H -0.8286807800 -0.0258092820 -2.3234898000
H -1.6957401950 -0.0091500590 1.8015806740
H -3.9017977720 -0.0449268700 0.5382050320
H 5.1380196900 0.9431650430 0.4355585890
H 4.8714521680 0.0988550370 1.9768468840
H 5.1525701270 -0.8337619180 0.4899838570
C 2.1659851770 0.0298665740 0.4444752670
N 3.3011604410 0.0453851320 0.6509612930
C 4.7018922040 0.0645780700 0.9037902220
