16
1 1
C -2.7746308140 -0.0429435220 -1.2697101320
C -1.4266283110 -0.0272942990 -1.4323413620
N -0.8676753990 -0.0119952440 -0.1746590190
H 0.1577285980 0.0021653530 0.0390251850
C -1.8297240490 -0.0178854630 0.7357902060
N -2.9985551560 -0.0366770190 0.0912263460
H -3.5750144030 -0.0576174220 -1.9843213040
H -0.8286807800 -0.0258092820 -2.3234898000
H -1.6957401950 -0.0091500590 1.8015806740
H -3.9017977720 -0.0449268700 0.5382050320
H 5.0467353000 0.9419058960 0.4171290400
H 4.7801677780 0.0975958900 1.9584173350
H 5.0612857370 -0.8350210650 0.4715543080
C 2.0747007870 0.0286074270 0.4260457180
N 3.2098760510 0.0441259850 0.6325317440
C 4.6106078140 0.0633189230 0.8853606730
