11
1 1
N 0.0000016550 0.0000014580 2.9210460250
H 0.0000014160 0.0000008060 1.8359401440
H 0.9584378070 0.0000011460 3.2674610250
H -0.4792158400 -0.8300285620 3.2674618820
H -0.4792159840 0.8300312780 3.2674618680
H -1.0273324430 -0.0000018000 -4.6075743830
H 0.5136615170 0.8896915450 -4.6075753290
H 0.5136615810 -0.8896951270 -4.6075758790
C -0.0000011260 -0.0000021440 -1.6764227180
N -0.0000018680 -0.0000022290 -2.8279808430
C -0.0000028080 -0.0000019390 -4.2528913370
