16
1 1
C -2.7746308140 -0.0429435220 -1.2697101320
C -1.4266283110 -0.0272942990 -1.4323413620
N -0.8676753990 -0.0119952440 -0.1746590190
H 0.1577285980 0.0021653530 0.0390251850
C -1.8297240490 -0.0178854630 0.7357902060
N -2.9985551560 -0.0366770190 0.0912263460
H -3.5750144030 -0.0576174220 -1.9843213040
H -0.8286807800 -0.0258092820 -2.3234898000
H -1.6957401950 -0.0091500590 1.8015806740
H -3.9017977720 -0.0449268700 0.5382050320
H 6.7811387090 0.9658296780 0.7672904750
H 6.5145711870 0.1215196720 2.3085787700
H 6.7956891460 -0.8110972830 0.8217157430
C 3.8091041960 0.0525312090 0.7762071530
N 4.9442794600 0.0680497670 0.9826931790
C 6.3450112230 0.0872427050 1.2355221080
