16
1 1
N -1.5759193060 0.8061434890 -0.1077558400
C -1.9777333540 -0.4594765530 -0.0994439630
N -1.0631976730 -1.4193109990 -0.0252360190
N -3.2760837180 -0.7609410450 -0.1643832350
H -0.5827975410 0.9991485340 -0.0570079900
H -2.2266203240 1.5679893640 -0.1624650170
H -0.0864861500 -1.1546901770 0.0227601730
H -1.3146168550 -2.3906580020 -0.0156149800
H -3.9763624290 -0.0436667610 -0.2208568240
H -3.5915669310 -1.7140953090 -0.1590123490
H 4.3701360930 1.5192386600 1.1291724050
H 4.7590234760 0.0549561410 0.2000683490
H 4.4440353240 1.5854309480 -0.6463655650
C 1.6681678250 0.3849596210 0.0836501680
N 2.7915994610 0.6479255960 0.1403240640
C 4.1760204530 0.9723257250 0.2101716070
