16
1 1
N -1.5759193060 0.8061434890 -0.1077558400
C -1.9777333540 -0.4594765530 -0.0994439630
N -1.0631976730 -1.4193109990 -0.0252360190
N -3.2760837180 -0.7609410450 -0.1643832350
H -0.5827975410 0.9991485340 -0.0570079900
H -2.2266203240 1.5679893640 -0.1624650170
H -0.0864861500 -1.1546901770 0.0227601730
H -1.3146168550 -2.3906580020 -0.0156149800
H -3.9763624290 -0.0436667610 -0.2208568240
H -3.5915669310 -1.7140953090 -0.1590123490
H 4.1524122770 1.4689356080 1.1182173370
H 4.5412996600 0.0046530890 0.1891132810
H 4.2263115080 1.5351278960 -0.6573206330
C 1.4504440090 0.3346565690 0.0726951000
N 2.5738756450 0.5976225440 0.1293689960
C 3.9582966370 0.9220226730 0.1992165390
