16
1 1
N -1.5759193060 0.8061434890 -0.1077558400
C -1.9777333540 -0.4594765530 -0.0994439630
N -1.0631976730 -1.4193109990 -0.0252360190
N -3.2760837180 -0.7609410450 -0.1643832350
H -0.5827975410 0.9991485340 -0.0570079900
H -2.2266203240 1.5679893640 -0.1624650170
H -0.0864861500 -1.1546901770 0.0227601730
H -1.3146168550 -2.3906580020 -0.0156149800
H -3.9763624290 -0.0436667610 -0.2208568240
H -3.5915669310 -1.7140953090 -0.1590123490
H 6.4385123520 1.9971176490 1.2332455530
H 6.8273997350 0.5328351300 0.3041414970
H 6.5124115830 2.0633099370 -0.5422924170
C 3.7365440840 0.8628386100 0.1877233160
N 4.8599757200 1.1258045850 0.2443972120
C 6.2443967120 1.4502047140 0.3142447550
