11
1 1
N 0.0000016550 0.0000014580 2.9210460250
H 0.0000014160 0.0000008060 1.8359401440
H 0.9584378070 0.0000011460 3.2674610250
H -0.4792158400 -0.8300285620 3.2674618820
H -0.4792159840 0.8300312780 3.2674618680
H -1.0273312990 -0.0000004720 -3.0270110950
H 0.5136626610 0.8896928720 -3.0270120410
H 0.5136627250 -0.8896938000 -3.0270125910
C 0.0000000180 -0.0000008160 -0.0958594300
N -0.0000007240 -0.0000009020 -1.2474175550
C -0.0000016640 -0.0000006120 -2.6723280490
