20
1 1
C 0.4482416220 -1.1102999420 -2.1274302800
N -0.1648785520 0.1131379380 -1.5374627070
H -0.0549770800 0.0391443550 -0.4969337980
C 0.5472598860 1.3509658280 -1.9633884000
C -1.6267554650 0.1905016030 -1.8162072430
H 1.4959926200 -1.1482850370 -1.8467087370
H 0.3539395730 -1.0708746740 -3.2088756200
H -0.0680686530 -1.9831914960 -1.7407600030
H 1.5931930800 1.2674899630 -1.6857473610
H 0.1003878190 2.2034213050 -1.4617410830
H 0.4558444870 1.4628214210 -3.0400089210
H -2.1047787170 -0.7064141160 -1.4353351260
H -1.7820401710 0.2682095600 -2.8885076900
H -2.0335908590 1.0643517190 -1.3173119480
H 1.0106007820 0.5504618310 4.2850734110
H -0.5587483910 -0.2781227350 4.3936338300
H 0.9302550570 -1.2212992170 4.1602550340
C 0.1440178480 -0.0973243110 1.3698967570
N 0.2683334740 -0.1832573000 2.5137398920
C 0.4221097450 -0.2896206470 3.9255667300
