22
-1 1
C 3.7557318300 -0.9406075500 0.0398061160
O 3.6140063260 -0.9142562980 1.2489393120
O 2.8628417210 -0.6189557110 -0.8580603170
H 1.9052319970 -0.3232665710 -0.4813787890
C 5.0664621870 -1.3795470670 -0.6001705720
H 5.7982660000 -1.6160751900 0.1670432440
H 4.8917683750 -2.2533686360 -1.2280557770
H 5.4464870990 -0.5886814450 -1.2469297740
O 0.7097555200 0.1658289660 -0.0980012820
C -0.3638917720 -0.2792313920 -0.6167231520
O -0.4835296650 -1.1446470610 -1.4903131860
C -1.6408406260 0.3592516630 -0.0678013140
C -2.8808730610 -0.0134871080 -0.5815875480
C -4.0509053690 0.5568598010 -0.0959088780
C -3.9939597970 1.5100647830 0.9163367740
C -2.7597110010 1.8863183420 1.4363062020
C -1.5917554780 1.3142635820 0.9456307320
H -2.8951925840 -0.7577870680 -1.3646882300
H -5.0086425710 0.2594510680 -0.5039726380
H -4.9041518350 1.9551063300 1.2973555540
H -2.7093583100 2.6258213550 2.2253822180
H -0.6223501250 1.5894059120 1.3338146080
