20
-1 1
H 2.3336531260 -2.5659180420 -0.1078454730
H 3.4703244160 0.6015069150 -2.7808817470
H 3.9105906440 -1.6237328820 -1.7682245220
H -0.1355093540 0.9129171570 -0.4472220960
H -0.6308124790 -0.8820424240 0.9641916670
H 1.4356263730 1.8538438410 -2.1027516060
C 2.7855195910 0.1841422960 -2.0549794090
C 3.0285298860 -1.0620358440 -1.4853892050
C 2.1506021760 -1.5977962830 -0.5543482110
C 0.9990162890 -0.8943115550 -0.1673876990
C 0.7522958000 0.3641389590 -0.7416776600
C 1.6422434860 0.8824262700 -1.6707391480
O 0.1887285970 -1.4536481950 0.7303517960
C -3.5021558130 1.0330567200 1.8333051260
C -2.1852798490 0.7257405410 1.0958370950
O -1.6666418420 -0.3921968500 1.3979648240
O -1.7531283520 1.5686781470 0.2927605520
H -4.2327575920 0.2524143660 1.6157606290
H -3.9008988510 2.0014612460 1.5379383540
H -3.3288717130 1.0193423170 2.9104619780
