17
-1 1
O -0.0308011250 -4.2727173860 -0.3333001510
H 0.2066006290 -3.5755892410 -0.9689558170
H -0.2569675590 -3.6806921430 0.4047032330
O 0.3478057550 -1.9830984450 -1.2255473490
C -0.0086166030 -1.5180880110 -0.1171560500
O -0.3716002320 -2.1437566640 0.9068187200
C 0.0002905770 0.0139304360 0.0012130620
C -0.3776963120 0.6369491070 1.1888036440
C -0.3714848260 2.0225682210 1.2988419400
C 0.0152096280 2.8071762240 0.2165476610
C 0.3945822260 2.1936572170 -0.9734827800
C 0.3860287790 0.8075552290 -1.0771042730
H -0.6732287010 0.0037702380 2.0128814150
H -0.6679687470 2.4937534460 2.2277928750
H 0.0208255520 3.8865666750 0.2997160750
H 0.6967066550 2.7984875800 -1.8195154480
H 0.6753796000 0.3050557140 -1.9887672100
