11
-1 1
C 1.6795741280 -0.6132525460 0.1094567480
O 1.3272596080 -1.7606311730 -0.1186393920
O 0.9103058530 0.4042621460 0.3526566650
H -0.2180004930 0.2245667250 0.3340408380
C 3.1601166970 -0.2389548910 0.1305277090
H 3.7752530950 -1.1173989800 -0.0456112120
H 3.3585727870 0.5105578730 -0.6362020220
H 3.4157306680 0.2078397160 1.0915961810
N -3.3136836670 0.8885625470 -0.3861973810
O -2.8083409350 0.0817312670 0.4892235540
O -4.5343203450 0.9417177620 -0.3889380350
