22
-1 1
C 3.7557318300 -0.9406075500 0.0398061160
O 3.6140063260 -0.9142562980 1.2489393120
O 2.8628417210 -0.6189557110 -0.8580603170
H 1.9052319970 -0.3232665710 -0.4813787890
C 5.0664621870 -1.3795470670 -0.6001705720
H 5.7982660000 -1.6160751900 0.1670432440
H 4.8917683750 -2.2533686360 -1.2280557770
H 5.4464870990 -0.5886814450 -1.2469297740
O 0.8355951490 0.1143452250 -0.1383568100
C -0.2380521430 -0.3307151330 -0.6570786780
O -0.3576900360 -1.1961308020 -1.5306687140
C -1.5150009970 0.3077679220 -0.1081568420
C -2.7550334320 -0.0649708490 -0.6219430740
C -3.9250657400 0.5053760600 -0.1362644060
C -3.8681201680 1.4585810420 0.8759812460
C -2.6338713720 1.8348346010 1.3959506740
C -1.4659158490 1.2627798410 0.9052752060
H -2.7693529550 -0.8092708090 -1.4050437560
H -4.8828029420 0.2079673270 -0.5443281660
H -4.7783122060 1.9036225890 1.2570000260
H -2.5835186810 2.5743376140 2.1850266920
H -0.4965104960 1.5379221710 1.2934590820
