16
-1 1
H 1.3218437150 -2.3153275880 -1.2609842510
H 4.3081223120 0.7002865660 -0.5837405940
H 3.6704451310 -1.5515730200 -1.4158611720
H 0.2165953120 1.3906531110 0.5501703550
H -1.2810237420 -0.3102120260 0.1298738050
H 2.5598133160 2.1613495700 0.3993582980
C 3.2833759910 0.3612672580 -0.5186336530
C 2.9211944530 -0.8998061740 -0.9835936000
C 1.6080302030 -1.3366245200 -0.9011806290
C 0.6112768420 -0.5174680440 -0.3466038940
C 0.9793687970 0.7562968220 0.1225695340
C 2.2979216190 1.1768015050 0.0320752930
O -0.6334223840 -0.9829021470 -0.2904674930
N -3.2411928760 0.6777672130 0.9544059530
O -1.9851526880 0.7644342450 0.7337539530
O -3.7777890860 -0.3782205330 0.6128001560
