14
-1 1
O 0.0476290910 0.8449174080 0.4855825920
C -1.1153047400 1.1368029650 0.9038049930
O -1.4421840120 2.1625058740 1.5130404740
C -2.2284663580 0.1210094090 0.6153398340
C -3.4842823930 0.3064795230 1.1930145440
C -4.5194600730 -0.5877328390 0.9549266970
C -4.3159705140 -1.6835094430 0.1214398100
C -3.0701159300 -1.8738752370 -0.4648573080
C -2.0337312530 -0.9800628400 -0.2166916390
H -3.6181552030 1.1715140330 1.8260182240
H -5.4866810340 -0.4314116670 1.4157678610
H -5.1210844250 -2.3814424430 -0.0691872280
H -2.9024513280 -2.7223231060 -1.1157148940
H -1.0674160160 -1.1364131980 -0.6700352900
