27
-1 1
H 2.9652513290 -2.5535083260 -1.1249368340
H 5.9885839920 0.4330719850 -1.7620809280
H 5.2403761510 -1.9311172280 -1.8782370270
H 2.1560607420 1.5171711930 -0.1297912970
H 0.6374530310 -0.1575881380 0.1352622000
H 4.4300844190 2.1518075060 -0.8828712440
C 4.9961979330 0.1559300390 -1.4342203730
C 4.5727998900 -1.1681320440 -1.4977896970
C 3.3001433980 -1.5263682370 -1.0784885030
C 2.4150050960 -0.5597353510 -0.5811185530
C 2.8416759160 0.7763089440 -0.5162916300
C 4.1174962490 1.1168299040 -0.9401093710
O 1.1999532540 -0.9475737510 -0.1866799800
O 0.0476290910 0.8449174080 0.4855825920
C -1.1153047400 1.1368029650 0.9038049930
O -1.4421840120 2.1625058740 1.5130404740
C -2.2284663580 0.1210094090 0.6153398340
C -3.4842823930 0.3064795230 1.1930145440
C -4.5194600730 -0.5877328390 0.9549266970
C -4.3159705140 -1.6835094430 0.1214398100
C -3.0701159300 -1.8738752370 -0.4648573080
C -2.0337312530 -0.9800628400 -0.2166916390
H -3.6181552030 1.1715140330 1.8260182240
H -5.4866810340 -0.4314116670 1.4157678610
H -5.1210844250 -2.3814424430 -0.0691872280
H -2.9024513280 -2.7223231060 -1.1157148940
H -1.0674160160 -1.1364131980 -0.6700352900
