20
-1 1
O -0.4160659110 1.2633646640 -3.8376736560
H -0.3878693820 1.1706027360 -2.8512716260
C 0.4160572070 0.2615131430 -4.3734179950
H 0.0063427640 -0.0721224240 -5.3333162120
H 1.4355499520 0.6322959400 -4.5626650900
H 0.4896461250 -0.5968905780 -3.7014514590
O -0.3009098220 0.9900216120 -1.2488494570
C -0.0011773090 -0.1295552860 -0.7527856100
O 0.2939251290 -1.1823849800 -1.3469324320
C -0.0035576140 -0.1843396420 0.7825210950
C 0.3170185240 -1.3671195180 1.4455387380
C 0.3175694690 -1.4272436090 2.8340578380
C -0.0046941690 -0.2985099660 3.5816007450
C -0.3263688500 0.8871320520 2.9281920660
C -0.3248579830 0.9408752080 1.5390765940
H 0.5626549560 -2.2275286400 0.8397659410
H 0.5687335240 -2.3531588870 3.3364775400
H -0.0052243570 -0.3426275740 4.6632883400
H -0.5782292340 1.7690174050 3.5040462640
H -0.5706465190 1.8484466710 1.0071971650
