22
-1 1
C 3.7557318300 -0.9406075500 0.0398061160
O 3.6140063260 -0.9142562980 1.2489393120
O 2.8628417210 -0.6189557110 -0.8580603170
H 1.9052319970 -0.3232665710 -0.4813787890
C 5.0664621870 -1.3795470670 -0.6001705720
H 5.7982660000 -1.6160751900 0.1670432440
H 4.8917683750 -2.2533686360 -1.2280557770
H 5.4464870990 -0.5886814450 -1.2469297740
O -0.6115605870 0.7064082430 0.3257317510
C -1.6852078790 0.2613478850 -0.1929901180
O -1.8048457720 -0.6040677840 -1.0665801530
C -2.9621567330 0.8998309400 0.3559317190
C -4.2021891680 0.5270921690 -0.1578545140
C -5.3722214760 1.0974390780 0.3278241550
C -5.3152759040 2.0506440600 1.3400698070
C -4.0810271080 2.4268976190 1.8600392350
C -2.9130715850 1.8548428590 1.3693637660
H -4.2165086910 -0.2172077910 -0.9409551960
H -6.3299586780 0.8000303450 -0.0802396050
H -6.2254679420 2.4956856070 1.7210885870
H -4.0306744170 3.1664006320 2.6491152520
H -1.9436662320 2.1299851890 1.7575476420
