27
-1 1
H 2.9652513290 -2.5535083260 -1.1249368340
H 5.9885839920 0.4330719850 -1.7620809280
H 5.2403761510 -1.9311172280 -1.8782370270
H 2.1560607420 1.5171711930 -0.1297912970
H 0.6374530310 -0.1575881380 0.1352622000
H 4.4300844190 2.1518075060 -0.8828712440
C 4.9961979330 0.1559300390 -1.4342203730
C 4.5727998900 -1.1681320440 -1.4977896970
C 3.3001433980 -1.5263682370 -1.0784885030
C 2.4150050960 -0.5597353510 -0.5811185530
C 2.8416759160 0.7763089440 -0.5162916300
C 4.1174962490 1.1168299040 -0.9401093710
O 1.1999532540 -0.9475737510 -0.1866799800
O -0.0998268940 1.0955437950 0.5731626900
C -1.2627607250 1.3874293520 0.9913850910
O -1.5896399970 2.4131322610 1.6006205720
C -2.3759223430 0.3716357960 0.7029199320
C -3.6317383780 0.5571059100 1.2805946420
C -4.6669160580 -0.3371064520 1.0425067950
C -4.4634264990 -1.4328830560 0.2090199080
C -3.2175719150 -1.6232488500 -0.3772772100
C -2.1811872380 -0.7294364530 -0.1291115410
H -3.7656111880 1.4221404200 1.9135983220
H -5.6341370190 -0.1807852800 1.5033479590
H -5.2685404100 -2.1308160560 0.0183928700
H -3.0499073130 -2.4716967190 -1.0281347960
H -1.2148720010 -0.8857868110 -0.5824551920
