9
-2 1
O -0.5451658450 -2.9520282340 -1.2009397380
H -0.4542013790 -2.0596585790 -1.6079944720
H -0.4072505530 -2.6049184000 -0.2894879700
C -0.0530973000 -0.2873837310 -0.1168787880
O -0.1885573490 -0.3905282480 -1.3728246320
O -0.1144628760 -1.2496527820 0.7056997810
C 0.2102107150 1.1380593100 0.4629469150
O -0.8065947030 1.8106547710 0.7787878460
O 1.4158891240 1.4878614570 0.5629777270
