11
-1 1
C 1.6795741280 -0.6132525460 0.1094567480
O 1.3272596080 -1.7606311730 -0.1186393920
O 0.9103058530 0.4042621460 0.3526566650
H -0.2180004930 0.2245667250 0.3340408380
C 3.1601166970 -0.2389548910 0.1305277090
H 3.7752530950 -1.1173989800 -0.0456112120
H 3.3585727870 0.5105578730 -0.6362020220
H 3.4157306680 0.2078397160 1.0915961810
N -2.0185134460 0.9599802760 -0.4637887390
O -1.5131707140 0.1531489960 0.4116321960
O -3.2391501240 1.0131354910 -0.4665293930
