22
-1 1
C 3.7557318300 -0.9406075500 0.0398061160
O 3.6140063260 -0.9142562980 1.2489393120
O 2.8628417210 -0.6189557110 -0.8580603170
H 1.9052319970 -0.3232665710 -0.4813787890
C 5.0664621870 -1.3795470670 -0.6001705720
H 5.7982660000 -1.6160751900 0.1670432440
H 4.8917683750 -2.2533686360 -1.2280557770
H 5.4464870990 -0.5886814450 -1.2469297740
O 0.8985149630 0.0886033550 -0.1585345730
C -0.1751323290 -0.3564570030 -0.6772564420
O -0.2947702220 -1.2218726720 -1.5508464770
C -1.4520811830 0.2820260520 -0.1283346050
C -2.6921136180 -0.0907127190 -0.6421208380
C -3.8621459260 0.4796341900 -0.1564421690
C -3.8052003540 1.4328391720 0.8558034830
C -2.5709515580 1.8090927310 1.3757729110
C -1.4029960350 1.2370379710 0.8850974420
H -2.7064331410 -0.8350126790 -1.4252215200
H -4.8198831280 0.1822254570 -0.5645059290
H -4.7153923920 1.8778807190 1.2368222630
H -2.5205988670 2.5485957440 2.1648489280
H -0.4335906820 1.5121803010 1.2732813180
