13
-1 0
  O   -0.204298186  -0.737785523   2.213977699
  H   -0.297980176  -0.785684740   1.223370934
  C    0.712295334   0.292530547   2.494426147
  H    1.722757814  -0.100618557   2.690881627
  H    0.780442301   0.999498096   1.663753855
  H    0.393939328   0.832336685   3.394752649
  C   -0.319690004  -0.036167932  -2.501971762
  C   -0.100488135   0.157687068  -0.983613424
  O   -0.408666756  -0.844217226  -0.277335258
  O    0.347449550   1.254810748  -0.601236162
  H   -1.374061907  -0.244754344  -2.693018880
  H    0.246218178  -0.903718718  -2.846048752
  H   -0.015442455   0.846516980  -3.062217934
