17
-1 1
O -0.0308011250 -4.2727173860 -0.3333001510
H 0.2066006290 -3.5755892410 -0.9689558170
H -0.2569675590 -3.6806921430 0.4047032330
O 0.3520623020 -1.4818067150 -1.1862177350
C -0.0043600560 -1.0167962810 -0.0778264360
O -0.3673436850 -1.6424649340 0.9461483340
C 0.0045471240 0.5152221660 0.0405426760
C -0.3734397650 1.1382408370 1.2281332580
C -0.3672282790 2.5238599510 1.3381715540
C 0.0194661750 3.3084679540 0.2558772750
C 0.3988387730 2.6949489470 -0.9341531660
C 0.3902853260 1.3088469590 -1.0377746590
H -0.6689721540 0.5050619680 2.0522110290
H -0.6637122000 2.9950451760 2.2671224890
H 0.0250820990 4.3878584050 0.3390456890
H 0.7009632020 3.2997793100 -1.7801858340
H 0.6796361470 0.8063474440 -1.9494375960
