9
-2 1
O -0.5451658450 -2.9520282340 -1.2009397380
H -0.4542013790 -2.0596585790 -1.6079944720
H -0.4072505530 -2.6049184000 -0.2894879700
C -0.0371624610 -0.2010826450 -0.0817705560
O -0.1726225100 -0.3042271620 -1.3377164000
O -0.0985280370 -1.1633516960 0.7408080130
C 0.2261455540 1.2243603960 0.4980551470
O -0.7906598640 1.8969558570 0.8138960780
O 1.4318239630 1.5741625430 0.5980859590
