13
-1 1
O -0.2042981860 -0.7377855230 2.2139776990
H -0.2979801760 -0.7856847400 1.2233709340
C 0.7122953340 0.2925305470 2.4944261470
H 1.7227578140 -0.1006185570 2.6908816270
H 0.7804423010 0.9994980960 1.6637538550
H 0.3939393280 0.8323366850 3.3947526490
C -0.3319885130 -0.0426715410 -2.6687168950
C -0.1127866440 0.1511834580 -1.1503585560
O -0.4209652650 -0.8507208350 -0.4440803910
O 0.3351510410 1.2483071380 -0.7679812940
H -1.3863604160 -0.2512579530 -2.8597640120
H 0.2339196690 -0.9102223280 -3.0127938840
H -0.0277409640 0.8400133710 -3.2289630670
