9
-2 1
O -0.5451658450 -2.9520282340 -1.2009397380
H -0.4542013790 -2.0596585790 -1.6079944720
H -0.4072505530 -2.6049184000 -0.2894879700
C -0.0212276220 -0.1147815590 -0.0466623230
O -0.1566876710 -0.2179260760 -1.3026081670
O -0.0825931980 -1.0770506100 0.7759162460
C 0.2420803930 1.3106614820 0.5331633800
O -0.7747250250 1.9832569430 0.8490043110
O 1.4477588020 1.6604636290 0.6331941920
