22
-1 1
C 3.7557318300 -0.9406075500 0.0398061160
O 3.6140063260 -0.9142562980 1.2489393120
O 2.8628417210 -0.6189557110 -0.8580603170
H 1.9052319970 -0.3232665710 -0.4813787890
C 5.0664621870 -1.3795470670 -0.6001705720
H 5.7982660000 -1.6160751900 0.1670432440
H 4.8917683750 -2.2533686360 -1.2280557770
H 5.4464870990 -0.5886814450 -1.2469297740
O 0.3322366320 0.3202801880 0.0230652980
C -0.7414106600 -0.1247801700 -0.4956565700
O -0.8610485530 -0.9901958390 -1.3692466060
C -2.0183595140 0.5137028850 0.0532652660
C -3.2583919490 0.1409641140 -0.4605209660
C -4.4284242570 0.7113110230 0.0251577020
C -4.3714786850 1.6645160050 1.0374033540
C -3.1372298890 2.0407695640 1.5573727820
C -1.9692743660 1.4687148040 1.0666973140
H -3.2727114720 -0.6033358460 -1.2436216480
H -5.3861614590 0.4139022900 -0.3829060580
H -5.2816707230 2.1095575520 1.4184221340
H -3.0868771980 2.7802725770 2.3464488000
H -0.9998690130 1.7438571340 1.4548811900
