17
-1 1
H 1.5949007100 -2.7138256850 -1.4632508500
H 4.2581921710 0.6579363670 -1.4112511970
H 3.7966087450 -1.7109996460 -1.9936945810
H 0.3113233810 0.9691426840 0.2751519590
H -1.0602542010 -0.8916520040 0.0127516960
H 2.4956094010 1.9896890050 -0.2804482350
C 3.2995121000 0.2140279990 -1.1805350300
C 3.0373673040 -1.1134338080 -1.5048266900
C 1.8076708470 -1.6841027410 -1.2109609700
C 0.8074384050 -0.9325333630 -0.5803042650
C 1.0720401260 0.4027411390 -0.2446566520
C 2.3062571410 0.9581445130 -0.5487907220
O -0.3604496970 -1.5302422010 -0.3174260470
N -2.8269903280 1.0548198530 1.2680112610
O -2.7866797260 0.1287203510 0.3918565750
O -3.9160680480 1.5757293350 1.5464294550
O -1.7687286200 1.4171917810 1.8229589580
