14
-1 1
O 0.8985149630 0.0886033550 -0.1585345730
C -0.1751323290 -0.3564570030 -0.6772564420
O -0.2947702220 -1.2218726720 -1.5508464770
C -1.4520811830 0.2820260520 -0.1283346050
C -2.6921136180 -0.0907127190 -0.6421208380
C -3.8621459260 0.4796341900 -0.1564421690
C -3.8052003540 1.4328391720 0.8558034830
C -2.5709515580 1.8090927310 1.3757729110
C -1.4029960350 1.2370379710 0.8850974420
H -2.7064331410 -0.8350126790 -1.4252215200
H -4.8198831280 0.1822254570 -0.5645059290
H -4.7153923920 1.8778807190 1.2368222630
H -2.5205988670 2.5485957440 2.1648489280
H -0.4335906820 1.5121803010 1.2732813180
