13
0 1
H 2.9652513290 -2.5535083260 -1.1249368340
H 5.9885839920 0.4330719850 -1.7620809280
H 5.2403761510 -1.9311172280 -1.8782370270
H 2.1560607420 1.5171711930 -0.1297912970
H 0.6374530310 -0.1575881380 0.1352622000
H 4.4300844190 2.1518075060 -0.8828712440
C 4.9961979330 0.1559300390 -1.4342203730
C 4.5727998900 -1.1681320440 -1.4977896970
C 3.3001433980 -1.5263682370 -1.0784885030
C 2.4150050960 -0.5597353510 -0.5811185530
C 2.8416759160 0.7763089440 -0.5162916300
C 4.1174962490 1.1168299040 -0.9401093710
O 1.1999532540 -0.9475737510 -0.1866799800
