7
-1 1
O -0.2001029660 -1.9982046680 -1.9949964250
H -0.1500442380 -1.3391520270 -1.2636295790
H -0.5412921590 -2.7757456720 -1.5495975530
N 0.0786663140 0.5211726590 0.3972060600
O -0.2630034170 -0.6883225230 0.2151528580
O 0.4968871670 1.1943747700 -0.5665054080
O -0.0104492280 1.0149048870 1.5390904360
