9
-1 1
O -0.3851913900 1.5049349570 -1.0240640160
H -0.1198593550 1.0386026030 -0.1875877520
C -0.2495400710 0.5907966580 -2.0835738530
H -1.0348571860 0.7754650310 -2.8256623830
H 0.7187466490 0.6973415100 -2.5978852120
H -0.3317518050 -0.4396174370 -1.7288465550
N 0.3383043110 -0.9295002350 1.4533571820
O 0.3981408910 0.3249802890 1.2958142550
O -0.0735369030 -1.5899454040 0.4815414070
