9
-2 1
O -0.5451658450 -2.9520282340 -1.2009397380
H -0.4542013790 -2.0596585790 -1.6079944720
H -0.4072505530 -2.6049184000 -0.2894879700
C 0.0106420560 0.0578206130 0.0235541420
O -0.1248179930 -0.0453239040 -1.2323917020
O -0.0507235200 -0.9044484380 0.8461327110
C 0.2739500710 1.4832636540 0.6033798450
O -0.7428553470 2.1558591150 0.9192207760
O 1.4796284800 1.8330658010 0.7034106570
