7
-1 1
O -0.2001029660 -1.9982046680 -1.9949964250
H -0.1500442380 -1.3391520270 -1.2636295790
H -0.5412921590 -2.7757456720 -1.5495975530
N 0.0661152940 0.5934870480 0.5615152200
O -0.2755544370 -0.6160081340 0.3794620180
O 0.4843361470 1.2666891590 -0.4021962480
O -0.0230002480 1.0872192760 1.7033995960
