9
-2 1
O -0.5451658450 -2.9520282340 -1.2009397380
H -0.4542013790 -2.0596585790 -1.6079944720
H -0.4072505530 -2.6049184000 -0.2894879700
C -0.0690321390 -0.3736848170 -0.1519870210
O -0.2044921880 -0.4768293340 -1.4079328650
O -0.1303977150 -1.3359538680 0.6705915480
C 0.1942758760 1.0517582240 0.4278386820
O -0.8225295420 1.7243536850 0.7436796130
O 1.3999542850 1.4015603710 0.5278694940
