7
-1 1
C -0.3073914950 -0.0296643220 -2.3352266300
C -0.0881896260 0.1641906770 -0.8168682910
O -0.3963682470 -0.8377136160 -0.1105901260
O 0.3597480590 1.2613143570 -0.4344910290
H -1.3617633980 -0.2382507340 -2.5262737470
H 0.2585166870 -0.8972151090 -2.6793036190
H -0.0031439460 0.8530205900 -2.8954728020
