22
-1 1
C 3.7557318300 -0.9406075500 0.0398061160
O 3.6140063260 -0.9142562980 1.2489393120
O 2.8628417210 -0.6189557110 -0.8580603170
H 1.9052319970 -0.3232665710 -0.4813787890
C 5.0664621870 -1.3795470670 -0.6001705720
H 5.7982660000 -1.6160751900 0.1670432440
H 4.8917683750 -2.2533686360 -1.2280557770
H 5.4464870990 -0.5886814450 -1.2469297740
O 0.6468357050 0.1915708360 -0.0778235190
C -0.4268115870 -0.2534895220 -0.5965453880
O -0.5464494800 -1.1189051910 -1.4701354230
C -1.7037604410 0.3849935330 -0.0476235510
C -2.9437928760 0.0122547620 -0.5614097840
C -4.1138251840 0.5826016710 -0.0757311150
C -4.0568796120 1.5358066530 0.9365145370
C -2.8226308160 1.9120602120 1.4564839650
C -1.6546752930 1.3400054520 0.9658084960
H -2.9581123990 -0.7320451980 -1.3445104660
H -5.0715623860 0.2851929380 -0.4837948750
H -4.9670716500 1.9808482000 1.3175333170
H -2.7722781250 2.6515632250 2.2455599820
H -0.6852699400 1.6151477820 1.3539923720
