13
-1 1
O -0.2042981860 -0.7377855230 2.2139776990
H -0.2979801760 -0.7856847400 1.2233709340
C 0.7122953340 0.2925305470 2.4944261470
H 1.7227578140 -0.1006185570 2.6908816270
H 0.7804423010 0.9994980960 1.6637538550
H 0.3939393280 0.8323366850 3.3947526490
C -0.3135407500 -0.0329161270 -2.4185991960
C -0.0943388810 0.1609388720 -0.9002408570
O -0.4025175020 -0.8409654210 -0.1939626920
O 0.3535988040 1.2580625520 -0.5178635950
H -1.3679126530 -0.2415025390 -2.6096463130
H 0.2523674320 -0.9004669140 -2.7626761850
H -0.0092932010 0.8497687850 -2.9788453680
