10
-1 1
O -1.4915370520 1.4569327220 -1.0052976280
H -1.1521668160 0.8096831190 -0.3447958210
C -0.7704481900 1.2648185710 -2.1983089150
H -0.9284055700 2.1363996820 -2.8399561680
H 0.2996652140 1.1488218140 -2.0107766830
H -1.1103586050 0.3771517830 -2.7518925380
N 0.5158051470 -0.5123457580 0.6422782830
O -0.7226839280 -0.2321442950 0.6355364820
O 1.2768151850 0.0400459750 -0.1819352060
O 0.9523033980 -1.3344740220 1.4689607350
