10
-1 1
O -1.4915370520 1.4569327220 -1.0052976280
H -1.1521668160 0.8096831190 -0.3447958210
C -0.7704481900 1.2648185710 -2.1983089150
H -0.9284055700 2.1363996820 -2.8399561680
H 0.2996652140 1.1488218140 -2.0107766830
H -1.1103586050 0.3771517830 -2.7518925380
N 0.5410688460 -0.5736297240 0.6999448890
O -0.6974202290 -0.2934282610 0.6932030880
O 1.3020788840 -0.0212379910 -0.1242686000
O 0.9775670970 -1.3957579880 1.5266273410
