10
-1 1
O -1.4915370520 1.4569327220 -1.0052976280
H -1.1521668160 0.8096831190 -0.3447958210
C -0.7704481900 1.2648185710 -2.1983089150
H -0.9284055700 2.1363996820 -2.8399561680
H 0.2996652140 1.1488218140 -2.0107766830
H -1.1103586050 0.3771517830 -2.7518925380
N 0.5663325460 -0.6349136890 0.7576114950
O -0.6721565290 -0.3547122260 0.7508696940
O 1.3273425840 -0.0825219560 -0.0666019940
O 1.0028307970 -1.4570419530 1.5842939470
