17
-1 1
O -0.0308011250 -4.2727173860 -0.3333001510
H 0.2066006290 -3.5755892410 -0.9689558170
H -0.2569675590 -3.6806921430 0.4047032330
O 0.3486570650 -1.8828400990 -1.2176814260
C -0.0077652930 -1.4178296650 -0.1092901270
O -0.3707489220 -2.0434983180 0.9146846430
C 0.0011418870 0.1141887820 0.0090789850
C -0.3768450020 0.7372074530 1.1966695670
C -0.3706335160 2.1228265670 1.3067078630
C 0.0160609380 2.9074345700 0.2244135840
C 0.3954335360 2.2939155630 -0.9656168570
C 0.3868800890 0.9078135750 -1.0692383500
H -0.6723773910 0.1040285840 2.0207473380
H -0.6671174370 2.5940117920 2.2356587980
H 0.0216768620 3.9868250210 0.3075819980
H 0.6975579650 2.8987459260 -1.8116495250
H 0.6762309100 0.4053140600 -1.9809012870
