22
-1 1
C 3.7557318300 -0.9406075500 0.0398061160
O 3.6140063260 -0.9142562980 1.2489393120
O 2.8628417210 -0.6189557110 -0.8580603170
H 1.9052319970 -0.3232665710 -0.4813787890
C 5.0664621870 -1.3795470670 -0.6001705720
H 5.7982660000 -1.6160751900 0.1670432440
H 4.8917683750 -2.2533686360 -1.2280557770
H 5.4464870990 -0.5886814450 -1.2469297740
O 0.0176375590 0.4489895400 0.1239541160
C -1.0560097330 0.0039291810 -0.3947677530
O -1.1756476260 -0.8614864880 -1.2683577880
C -2.3329585870 0.6424122360 0.1541540840
C -3.5729910220 0.2696734660 -0.3596321490
C -4.7430233300 0.8400203740 0.1260465200
C -4.6860777580 1.7932253560 1.1382921720
C -3.4518289620 2.1694789160 1.6582616000
C -2.2838734390 1.5974241560 1.1675861310
H -3.5873105450 -0.4746264940 -1.1427328310
H -5.7007605320 0.5426116420 -0.2820172400
H -5.5962697960 2.2382669040 1.5193109520
H -3.4014762710 2.9089819280 2.4473376170
H -1.3144680860 1.8725664860 1.5557700070
