7
-1 1
O -0.2001029660 -1.9982046680 -1.9949964250
H -0.1500442380 -1.3391520270 -1.2636295790
H -0.5412921590 -2.7757456720 -1.5495975530
N 0.0849418240 0.4850154640 0.3150514800
O -0.2567279070 -0.7244797180 0.1329982780
O 0.5031626770 1.1582175750 -0.6486599880
O -0.0041737180 0.9787476920 1.4569358560
