13
-1 1
O -0.2042981860 -0.7377855230 2.2139776990
H -0.2979801760 -0.7856847400 1.2233709340
C 0.7122953340 0.2925305470 2.4944261470
H 1.7227578140 -0.1006185570 2.6908816270
H 0.7804423010 0.9994980960 1.6637538550
H 0.3939393280 0.8323366850 3.3947526490
C -0.3196900040 -0.0361679320 -2.5019717620
C -0.1004881350 0.1576870680 -0.9836134240
O -0.4086667560 -0.8442172260 -0.2773352580
O 0.3474495500 1.2548107480 -0.6012361620
H -1.3740619070 -0.2447543440 -2.6930188800
H 0.2462181780 -0.9037187180 -2.8460487520
H -0.0154424550 0.8465169800 -3.0622179340
