7
-1 1
O -0.2001029660 -1.9982046680 -1.9949964250
H -0.1500442380 -1.3391520270 -1.2636295790
H -0.5412921590 -2.7757456720 -1.5495975530
N 0.0912173340 0.4488582690 0.2328969010
O -0.2504523970 -0.7606369130 0.0508436990
O 0.5094381870 1.1220603800 -0.7308145670
O 0.0021017920 0.9425904970 1.3747812770
