17
-1 1
O -0.0308011250 -4.2727173860 -0.3333001510
H 0.2066006290 -3.5755892410 -0.9689558170
H -0.2569675590 -3.6806921430 0.4047032330
O 0.3495083740 -1.7825817530 -1.2098155040
C -0.0069139840 -1.3175713190 -0.1014242050
O -0.3698976130 -1.9432399720 0.9225505650
C 0.0019931960 0.2144471280 0.0169449070
C -0.3759936930 0.8374657990 1.2045354890
C -0.3697822070 2.2230849130 1.3145737850
C 0.0169122470 3.0076929160 0.2322795060
C 0.3962848450 2.3941739090 -0.9577509350
C 0.3877313980 1.0080719210 -1.0613724280
H -0.6715260820 0.2042869300 2.0286132600
H -0.6662661280 2.6942701380 2.2435247200
H 0.0225281710 4.0870833670 0.3154479200
H 0.6984092740 2.9990042720 -1.8037836030
H 0.6770822190 0.5055724060 -1.9730353650
