20
-1 1
O -0.4160659110 1.2633646640 -3.8376736560
H -0.3878693820 1.1706027360 -2.8512716260
C 0.4160572070 0.2615131430 -4.3734179950
H 0.0063427640 -0.0721224240 -5.3333162120
H 1.4355499520 0.6322959400 -4.5626650900
H 0.4896461250 -0.5968905780 -3.7014514590
O -0.2047966240 0.7904319480 0.5222487300
C 0.0949358890 -0.3291449500 1.0183125770
O 0.3900383270 -1.3819746440 0.4241657550
C 0.0925555840 -0.3839293060 2.5536192820
C 0.4131317220 -1.5667091820 3.2166369250
C 0.4136826670 -1.6268332730 4.6051560250
C 0.0914190290 -0.4980996300 5.3526989320
C -0.2302556520 0.6875423880 4.6992902530
C -0.2287447850 0.7412855440 3.3101747810
H 0.6587681540 -2.4271183040 2.6108641280
H 0.6648467220 -2.5527485510 5.1075757270
H 0.0908888410 -0.5422172380 6.4343865270
H -0.4821160360 1.5694277410 5.2751444510
H -0.4745333210 1.6488570070 2.7782953520
