8
0 1
C 1.1047104070 -0.4003439210 -0.0157448280
O 0.6985866840 -1.5233720210 -0.2507740550
O 0.3814327980 0.6752151390 0.1485069940
H -0.6867166910 0.5630264530 0.0691191920
C 2.5938939170 -0.1054788300 0.1217275870
H 3.1708863900 -1.0149453750 -0.0200666510
H 2.8915464640 0.6417757580 -0.6141220340
H 2.7974634420 0.3135210370 1.1073689310
