11
-1 1
N -0.8542661850 0.8031872640 2.1198502530
H -0.9912104800 0.2582495430 1.2657541700
H -0.0953993620 0.3206241670 2.5871786610
C -0.3680129270 2.1216267690 1.7107571640
H -0.1091855010 2.7189337570 2.5895715780
H 0.5017900350 2.0816530410 1.0453509210
H -1.1645362950 2.6507443100 1.1843221000
N 0.3881706290 -1.5710989380 -2.8069781700
O -0.8130451180 -1.4358455670 -2.4398101000
O 0.6457626280 -2.1187278780 -3.8993164400
O 1.3137751020 -1.1535522310 -2.0696174330
