28
-1 1
H 1.8835169240 0.4662966640 -0.4107839250
H 5.4850916270 2.8098064440 -0.1128374070
H 4.3066214410 0.6247256210 0.0260634220
H 1.7699912060 4.6896816940 -1.1416674500
H -0.2007132920 1.6257847050 -0.7817087680
H 4.1815202160 4.8426971670 -0.6963866340
H -0.2111834590 3.3124215670 -1.0777986510
C 4.4237075680 2.7442869910 -0.3088167220
C 3.7565485420 1.5202993520 -0.2345177220
C 2.3991152530 1.4174871990 -0.4808674040
C 1.6526873400 2.5644748800 -0.8172683660
C 2.3278488620 3.7964144290 -0.8856685860
C 3.6902261220 3.8792621040 -0.6354640340
N 0.3175829020 2.4586127240 -1.1052229340
O -1.2894662030 0.3426473270 -0.1933026520
C -0.8295961190 -0.8167976610 -0.0179904840
O 0.3442253450 -1.2071790360 -0.1661128380
C -1.8506098270 -1.8707893840 0.4344063940
C -1.4518514780 -3.1864515210 0.6607692230
C -2.3687683180 -4.1472652150 1.0699982960
C -3.7036535090 -3.8024310880 1.2590089390
C -4.1110692850 -2.4909546330 1.0353625990
C -3.1890692560 -1.5345267530 0.6261549750
H -0.4096460490 -3.4259710770 0.5063312370
H -2.0453806680 -5.1662103260 1.2425126750
H -4.4198005980 -4.5489989650 1.5777828510
H -5.1484013950 -2.2162576720 1.1807795850
H -3.4792957010 -0.5097013110 0.4458340830
