21
-1 1
N -0.0582902440 3.5977249310 2.1544998140
H -0.4645431530 2.6886197840 1.9123542850
H 0.8497083280 3.3465891450 2.5294959350
C 0.1644314410 4.3053959530 0.8922504000
H 0.6943276870 5.2454364520 1.0720852740
H 0.7297402470 3.7193282360 0.1588282740
H -0.7997228960 4.5593440290 0.4469379690
O -1.0800468300 0.0563492570 0.6022712400
C -0.0438110390 -0.3674246040 0.0335002740
O 1.0919615380 0.1499376800 0.0001097310
C -0.2018522960 -1.7013816410 -0.7217344640
C 0.8792791500 -2.2673523800 -1.3943689600
C 0.7433474680 -3.4701042670 -2.0779611940
C -0.4834623760 -4.1270298790 -2.0978330840
C -1.5692154780 -3.5697961930 -1.4289909160
C -1.4260804460 -2.3664862000 -0.7475283860
H 1.8192479020 -1.7351396020 -1.3616858040
H 1.5924639420 -3.8982469500 -2.5965583620
H -0.5922877020 -5.0639343220 -2.6294228100
H -2.5268415040 -4.0757855130 -1.4405426060
H -2.2518854300 -1.9109599230 -0.2201523240
