17
-1 1
H -1.1207950910 -0.3745503440 1.5328285780
H 0.0939214930 -1.8501465160 3.4985162900
H 2.6139376500 -2.3243955220 2.5879936380
H 2.7538218750 -1.1163589610 0.1572055140
N 0.7397369460 -0.5713647630 0.5648649470
C -0.1259078200 -0.7790967670 1.5923519510
C 0.5176907960 -1.5241959200 2.5630389670
C 1.8348485780 -1.7725599950 2.0880743350
C 1.9315625360 -1.1665223020 0.8494090070
H 0.4990832900 -0.0302463270 -0.3040088440
C -1.5292452920 2.0112151400 -2.7696958980
C -1.0648939340 1.2002970040 -1.5416597410
O 0.1300899080 0.7827060250 -1.6024465110
O -1.8772613930 1.0252556400 -0.6160787950
H -1.4416158800 1.3962493220 -3.6671085720
H -0.8749215800 2.8738726910 -2.9066733440
H -2.5584685320 2.3463946360 -2.6550565210
