24
-1 1
H -0.3700350790 1.0751811770 3.0353907580
H 0.5017865170 0.8240744800 5.6205978270
H 2.4324650530 -1.0911020990 5.5473892270
H 2.6001656650 -1.8647359890 2.9479681320
N 1.0641240170 -0.4229306760 2.6577971580
C 0.3820945790 0.4359507390 3.4622463210
C 0.8458029640 0.2829694190 4.7549436640
C 1.8552251520 -0.7179481940 4.7176363040
C 1.9602346760 -1.1292426380 3.4028473730
H 0.9056961740 -0.5081085160 1.6297592680
O 0.6175006280 -0.6356829750 -0.1225992300
C -0.2883517210 0.1734641420 -0.4704096090
O -0.9195574620 0.9639211600 0.2532519040
C -0.6385828450 0.1676053050 -1.9631191790
C -1.6236362730 1.0202615750 -2.4568150930
C -1.9492177970 1.0234372570 -3.8077307000
C -1.2899611630 0.1691398820 -4.6864319800
C -0.3048665790 -0.6857703190 -4.2022088680
C 0.0164819030 -0.6844490160 -2.8498055850
H -2.1188945090 1.6725244540 -1.7520569010
H -2.7167989130 1.6910967530 -4.1785600760
H -1.5417825370 0.1697347960 -5.7392177830
H 0.2116636720 -1.3528351490 -4.8809558490
H 0.7771404860 -1.3382546760 -2.4488836460
