21
-1 1
N -0.0582902440 3.5977249310 2.1544998140
H -0.4645431530 2.6886197840 1.9123542850
H 0.8497083280 3.3465891450 2.5294959350
C 0.1644314410 4.3053959530 0.8922504000
H 0.6943276870 5.2454364520 1.0720852740
H 0.7297402470 3.7193282360 0.1588282740
H -0.7997228960 4.5593440290 0.4469379690
O -0.9159125160 0.7582880640 0.9516267180
C 0.1203232760 0.3345142030 0.3828557530
O 1.2560958520 0.8518764870 0.3494652100
C -0.0377179830 -0.9994428340 -0.3723789860
C 1.0434134640 -1.5654135730 -1.0450134820
C 0.9074817820 -2.7681654600 -1.7286057150
C -0.3193280620 -3.4250910720 -1.7484776050
C -1.4050811640 -2.8678573860 -1.0796354370
C -1.2619461320 -1.6645473930 -0.3981729080
H 1.9833822160 -1.0332007950 -1.0123303260
H 1.7565982560 -3.1963081430 -2.2472028830
H -0.4281533880 -4.3619955150 -2.2800673320
H -2.3627071900 -3.3738467060 -1.0911871280
H -2.0877511160 -1.2090211160 0.1292031540
