17
-1 1
H 1.5013039150 2.2279710990 2.2607934230
H 1.4362395700 1.6670427980 0.5704118960
H 2.1208807960 0.6291938660 1.8317731700
H -0.0507381900 -0.0699896850 1.3109163860
H -1.9998253330 1.1650183960 1.7008451240
H -1.0203799850 2.5558747120 2.1806604850
H -0.9953871140 1.9832161380 0.4931429460
C 1.3339376850 1.3546574910 1.6196290150
N 0.0384926630 0.7621326090 1.9074416300
C -1.0419973110 1.6636034510 1.5441335250
C -0.1423875740 -1.6083771720 -2.1068152130
C -0.0511534810 -0.6181814770 -0.9175765330
O -0.1558135110 -1.1456697990 0.2214105880
O 0.1143097570 0.5888907880 -1.1926895320
H 0.6393683860 -2.3646429050 -2.0122856780
H -0.0409082360 -1.0950961320 -3.0621415690
H -1.1001392900 -2.1314608220 -2.0723082020
