18
-1 1
N -1.5688322220 4.2864673430 0.3873667580
H -1.1934920760 3.5692730490 -0.2413439280
H -1.3789230150 3.8670191760 1.2933872990
H -2.5767830410 4.2420007380 0.2778191000
O 0.3030677680 -0.0792251130 -1.4476242020
C 0.5026624730 -0.7479279190 -0.4047580040
O 0.4096887770 -0.3835240450 0.7867038590
C 0.9165355180 -2.2165097470 -0.6287413200
C 1.1639772310 -3.0572404690 0.4546152000
C 1.5366973570 -4.3821358120 0.2589020630
C 1.6679893890 -4.8872540070 -1.0313227400
C 1.4234285850 -4.0554440180 -2.1199603560
C 1.0509819470 -2.7314968160 -1.9165831520
H 1.0545506510 -2.6377017120 1.4445176270
H 1.7258627120 -5.0239315430 1.1107637800
H 1.9582704350 -5.9186839800 -1.1868146890
H 1.5241156570 -4.4419430560 -3.1268458840
H 0.8552525130 -2.0631859650 -2.7428684400
