10
-2 1
N -1.3109183160 3.1855489600 0.2547642940
H -0.9697647110 2.6462000900 -0.5526846810
H -0.9182236950 2.5574460920 0.9685223900
H -2.3064946900 2.9748712340 0.2761121730
C -0.0216682530 0.3417478690 0.0244806620
O -0.2111941830 0.9732535120 -1.0565456080
O -0.1227515400 0.8253851950 1.1900691610
C 0.3655130300 -1.1691359900 -0.0903603430
O 1.5957327870 -1.4349165830 -0.1579041560
O -0.5888732580 -1.9930782840 -0.1054363250
