17
-1 1
H 1.2464266950 -1.1987158220 -0.2080990040
H 3.9621647620 2.1327661650 -0.2636662450
H 3.5437329160 -0.3157176010 -0.1581613430
H -0.2715604620 2.7970086440 -0.4691253020
H -1.1361537830 -0.7537623580 -0.1293012090
H 2.0190563890 3.6750981840 -0.4125454470
H -1.7192566480 0.8392379370 -0.2504174330
C 2.9532540920 1.7457098800 -0.2888640990
C 2.7111992730 0.3729233170 -0.2322469090
C 1.4249394600 -0.1339498890 -0.2627193550
C 0.3096608130 0.7271484700 -0.3540527530
C 0.5655843360 2.1130452690 -0.4033764870
C 1.8609449790 2.6042760830 -0.3723214590
N -0.9482690930 0.2195149630 -0.4266998310
N -2.5662389320 -2.3048151000 0.7599547490
O -1.3783936230 -2.1897334850 0.3392939790
O -3.2750349650 -1.2817688780 0.6859813620
