14
-1 1
O -1.0717156210 0.5992748030 -0.3109838750
C -0.6118455370 -0.5601701850 -0.1356717070
O 0.5619759270 -0.9505515600 -0.2837940610
C -1.6328592450 -1.6141619080 0.3167251710
C -1.2341008960 -2.9298240450 0.5430880000
C -2.1510177360 -3.8906377390 0.9523170730
C -3.4859029270 -3.5458036120 1.1413277160
C -3.8933187030 -2.2343271570 0.9176813760
C -2.9713186740 -1.2778992770 0.5084737520
H -0.1918954670 -3.1693436010 0.3886500140
H -1.8276300860 -4.9095828500 1.1248314520
H -4.2020500160 -4.2923714890 1.4601016280
H -4.9306508130 -1.9596301960 1.0630983620
H -3.2615451190 -0.2530738350 0.3281528600
