28
-1 1
H 1.8835169240 0.4662966640 -0.4107839250
H 5.4850916270 2.8098064440 -0.1128374070
H 4.3066214410 0.6247256210 0.0260634220
H 1.7699912060 4.6896816940 -1.1416674500
H -0.2007132920 1.6257847050 -0.7817087680
H 4.1815202160 4.8426971670 -0.6963866340
H -0.2111834590 3.3124215670 -1.0777986510
C 4.4237075680 2.7442869910 -0.3088167220
C 3.7565485420 1.5202993520 -0.2345177220
C 2.3991152530 1.4174871990 -0.4808674040
C 1.6526873400 2.5644748800 -0.8172683660
C 2.3278488620 3.7964144290 -0.8856685860
C 3.6902261220 3.8792621040 -0.6354640340
N 0.3175829020 2.4586127240 -1.1052229340
O -1.2350285570 0.4068041960 -0.2227229580
C -0.7751584730 -0.7526407920 -0.0474107900
O 0.3986629910 -1.1430221670 -0.1955331440
C -1.7961721810 -1.8066325150 0.4049860880
C -1.3974138320 -3.1222946520 0.6313489170
C -2.3143306720 -4.0831083460 1.0405779900
C -3.6492158630 -3.7382742190 1.2295886330
C -4.0566316390 -2.4267977640 1.0059422930
C -3.1346316100 -1.4703698840 0.5967346690
H -0.3552084030 -3.3618142080 0.4769109310
H -1.9909430220 -5.1020534570 1.2130923690
H -4.3653629520 -4.4848420960 1.5483625450
H -5.0939637490 -2.1521008030 1.1513592790
H -3.4248580550 -0.4455444420 0.4164137770
