14
-1 1
O -0.5948681380 2.1098737840 -0.7238560380
C -0.3952734330 1.4411709780 0.3190101600
O -0.4882471290 1.8055748520 1.5104720230
C 0.0185996120 -0.0274108500 0.0950268440
C 0.2660413250 -0.8681415720 1.1783833640
C 0.6387614510 -2.1930369150 0.9826702270
C 0.7700534830 -2.6981551100 -0.3075545760
C 0.5254926790 -1.8663451210 -1.3961921920
C 0.1530460410 -0.5423979190 -1.1928149880
H 0.1566147450 -0.4486028150 2.1682857910
H 0.8279268060 -2.8348326460 1.8345319440
H 1.0603345290 -3.7295850830 -0.4630465250
H 0.6261797510 -2.2528441590 -2.4030777200
H -0.0426833930 0.1259129320 -2.0191002760
