10
-1 1
N -1.1506094470 0.9442881670 1.1818644630
H -1.0610023250 0.4666333370 0.2781471740
H -0.9592703590 0.1956185990 1.8386896270
C -0.0456484940 1.8989275110 1.2599058970
H -0.0133548220 2.3670820430 2.2482156520
H 0.9367768370 1.4543427550 1.0564357560
H -0.2031786020 2.6954287430 0.5300074920
N 0.6904934130 -1.0777604930 -1.1399121220
O -0.2877958290 -0.3304019670 -1.4120819970
O 0.8067747070 -1.4297443140 0.0551257790
