10
-2 1
N -1.3109183160 3.1855489600 0.2547642940
H -0.9697647110 2.6462000900 -0.5526846810
H -0.9182236950 2.5574460920 0.9685223900
H -2.3064946900 2.9748712340 0.2761121730
C 0.1095243750 0.0542963840 0.0006476390
O -0.0800015550 0.6858020270 -1.0803786310
O 0.0084410880 0.5379337100 1.1662361380
C 0.4967056580 -1.4565874750 -0.1141933660
O 1.7269254150 -1.7223680680 -0.1817371790
O -0.4576806300 -2.2805297690 -0.1292693480
