18
-1 1
N -1.5688322220 4.2864673430 0.3873667580
H -1.1934920760 3.5692730490 -0.2413439280
H -1.3789230150 3.8670191760 1.2933872990
H -2.5767830410 4.2420007380 0.2778191000
O -0.2581421740 1.2889616980 -0.9952690990
C -0.0585474680 0.6202588920 0.0475970990
O -0.1515211640 0.9846627660 1.2390589620
C 0.3553255760 -0.8483229360 -0.1763862170
C 0.6027672900 -1.6890536580 0.9069703030
C 0.9754874160 -3.0139490010 0.7112571660
C 1.1067794480 -3.5190671960 -0.5789676370
C 0.8622186440 -2.6872572070 -1.6676052530
C 0.4897720060 -1.3633100050 -1.4642280490
H 0.4933407100 -1.2695149010 1.8968727300
H 1.1646527700 -3.6557447320 1.5631188830
H 1.3970604940 -4.5504971690 -0.7344595860
H 0.9629057160 -3.0737562450 -2.6744907810
H 0.2940425720 -0.6949991540 -2.2905133370
