7
-1 1
C -1.4709831790 1.8828542420 -2.5646794250
C -1.0066318210 1.0719361060 -1.3366432680
O 0.1883520210 0.6543451270 -1.3974300380
O -1.8189992800 0.8968947420 -0.4110623220
H -1.3833537670 1.2678884240 -3.4620920990
H -0.8166594670 2.7455117930 -2.7016568710
H -2.5002064190 2.2180337380 -2.4500400480
