21
-1 1
N -0.0582902440 3.5977249310 2.1544998140
H -0.4645431530 2.6886197840 1.9123542850
H 0.8497083280 3.3465891450 2.5294959350
C 0.1644314410 4.3053959530 0.8922504000
H 0.6943276870 5.2454364520 1.0720852740
H 0.7297402470 3.7193282360 0.1588282740
H -0.7997228960 4.5593440290 0.4469379690
O -1.2852147230 -0.8210742520 0.1655768910
C -0.2489789310 -1.2448481130 -0.4031940740
O 0.8867936460 -0.7274858290 -0.4365846170
C -0.4070201890 -2.5788051500 -1.1584288130
C 0.6741112570 -3.1447758890 -1.8310633090
C 0.5381795760 -4.3475277760 -2.5146555420
C -0.6886302690 -5.0044533880 -2.5345274320
C -1.7743833710 -4.4472197020 -1.8656852640
C -1.6312483380 -3.2439097090 -1.1842227350
H 1.6140800090 -2.6125631110 -1.7983801530
H 1.3872960500 -4.7756704590 -3.0332527100
H -0.7974555950 -5.9413578310 -3.0661171590
H -2.7320093960 -4.9532090220 -1.8772369550
H -2.4570533220 -2.7883834320 -0.6568466730
