14
-1 1
O -0.7928117810 1.2847421700 1.2136433270
C 0.2434240110 0.8609683090 0.6448723620
O 1.3791965880 1.3783305930 0.6114818190
C 0.0853827530 -0.4729887280 -0.1103623770
C 1.1665141990 -1.0389594670 -0.7829968730
C 1.0305825180 -2.2417113540 -1.4665891060
C -0.1962273270 -2.8986369660 -1.4864609960
C -1.2819804290 -2.3414032800 -0.8176188280
C -1.1388453960 -1.1380932870 -0.1361562990
H 2.1064829510 -0.5067466890 -0.7503137170
H 1.8796989920 -2.6698540370 -1.9851862740
H -0.3050526530 -3.8355414090 -2.0180507230
H -2.2396064540 -2.8473926000 -0.8291705190
H -1.9646503800 -0.6825670100 0.3912197630
