18
-1 1
N -1.5688322220 4.2864673430 0.3873667580
H -1.1934920760 3.5692730490 -0.2413439280
H -1.3789230150 3.8670191760 1.2933872990
H -2.5767830410 4.2420007380 0.2778191000
O -0.3703841620 1.5625990600 -0.9047980790
C -0.1707894570 0.8938962540 0.1380681190
O -0.2637631530 1.2583001280 1.3295299820
C 0.2430835880 -0.5746855740 -0.0859151970
C 0.4905253010 -1.4154162960 0.9974413230
C 0.8632454270 -2.7403116390 0.8017281860
C 0.9945374590 -3.2454298340 -0.4884966170
C 0.7499766550 -2.4136198450 -1.5771342330
C 0.3775300170 -1.0896726430 -1.3737570290
H 0.3810987210 -0.9958775390 1.9873437500
H 1.0524107820 -3.3821073700 1.6535899030
H 1.2848185050 -4.2768598070 -0.6439885660
H 0.8506637270 -2.8001188830 -2.5840197610
H 0.1818005830 -0.4213617920 -2.2000423170
