24
-1 1
H -0.3700350790 1.0751811770 3.0353907580
H 0.5017865170 0.8240744800 5.6205978270
H 2.4324650530 -1.0911020990 5.5473892270
H 2.6001656650 -1.8647359890 2.9479681320
N 1.0641240170 -0.4229306760 2.6577971580
C 0.3820945790 0.4359507390 3.4622463210
C 0.8458029640 0.2829694190 4.7549436640
C 1.8552251520 -0.7179481940 4.7176363040
C 1.9602346760 -1.1292426380 3.4028473730
H 0.9056961740 -0.5081085160 1.6297592680
O 0.3567522760 -0.7511074860 -1.7080664420
C -0.5491000730 0.0580396310 -2.0558768210
O -1.1803058140 0.8484966490 -1.3322153080
C -0.8993311970 0.0521807940 -3.5485863910
C -1.8843846250 0.9048370640 -4.0422823050
C -2.2099661490 0.9080127460 -5.3931979120
C -1.5507095150 0.0537153710 -6.2718991920
C -0.5656149310 -0.8011948300 -5.7876760800
C -0.2442664490 -0.7998735270 -4.4352727970
H -2.3796428610 1.5570999430 -3.3375241130
H -2.9775472650 1.5756722420 -5.7640272880
H -1.8025308890 0.0543102850 -7.3246849950
H -0.0490846800 -1.4682596600 -6.4664230610
H 0.5163921340 -1.4536791870 -4.0343508580
