8
-2 1
N -0.9577642320 2.2080819120 -0.9717895120
H -0.0979263850 1.7617289850 -0.5419483650
H -1.4222560810 2.6196103070 -0.1626143120
H -1.4383590520 1.3051264000 -1.0739836440
C 0.7795923880 -1.2398588300 0.6458905500
O 1.4255491520 -0.0936948300 0.6183149120
O -0.3773494550 -1.3356842580 0.0536432100
O 1.2962948590 -2.2512677360 1.2567287920
