14
-1 1
N -0.6069518040 1.0383484310 2.1660713420
H -0.5332342310 0.2524321660 1.5073078350
H -0.2127655130 0.7153821430 3.0411353800
C 0.1844051510 2.1476412020 1.6387233760
H -0.0411098680 3.0762007700 2.1750831070
H 1.2730612670 1.9943577190 1.6792545750
H -0.0676528370 2.2758730130 0.5877916330
C 0.3705826500 -1.8374270180 -1.9803332050
C 0.0802906670 -0.7354879220 -0.9272430110
O -0.1602678730 -1.1619238910 0.2326379030
O 0.1067655150 0.4485197500 -1.3233058300
H -0.5160958020 -2.4638858100 -2.0995471230
H 1.1751609000 -2.4842496790 -1.6254231370
H 0.6408063870 -1.4073841660 -2.9440513160
