17
-1 1
H 1.5013039150 2.2279710990 2.2607934230
H 1.4362395700 1.6670427980 0.5704118960
H 2.1208807960 0.6291938660 1.8317731700
H -0.0507381900 -0.0699896850 1.3109163860
H -1.9998253330 1.1650183960 1.7008451240
H -1.0203799850 2.5558747120 2.1806604850
H -0.9953871140 1.9832161380 0.4931429460
C 1.3339376850 1.3546574910 1.6196290150
N 0.0384926630 0.7621326090 1.9074416300
C -1.0419973110 1.6636034510 1.5441335250
C -0.2014924420 -2.2134472360 -2.7196622240
C -0.1102583490 -1.2232515400 -1.5304235440
O -0.2149183790 -1.7507398620 -0.3914364230
O 0.0552048890 -0.0161792760 -1.8055365430
H 0.5802635180 -2.9697129680 -2.6251326890
H -0.1000131040 -1.7001661960 -3.6749885800
H -1.1592441580 -2.7365308860 -2.6851552130
