28
-1 1
H 1.8835169240 0.4662966640 -0.4107839250
H 5.4850916270 2.8098064440 -0.1128374070
H 4.3066214410 0.6247256210 0.0260634220
H 1.7699912060 4.6896816940 -1.1416674500
H -0.2007132920 1.6257847050 -0.7817087680
H 4.1815202160 4.8426971670 -0.6963866340
H -0.2111834590 3.3124215670 -1.0777986510
C 4.4237075680 2.7442869910 -0.3088167220
C 3.7565485420 1.5202993520 -0.2345177220
C 2.3991152530 1.4174871990 -0.4808674040
C 1.6526873400 2.5644748800 -0.8172683660
C 2.3278488620 3.7964144290 -0.8856685860
C 3.6902261220 3.8792621040 -0.6354640340
N 0.3175829020 2.4586127240 -1.1052229340
O -1.1805909120 0.4709610650 -0.2521432640
C -0.7207208280 -0.6884839230 -0.0768310960
O 0.4531006360 -1.0788652980 -0.2249534500
C -1.7417345360 -1.7424756460 0.3755657820
C -1.3429761870 -3.0581377830 0.6019286110
C -2.2598930270 -4.0189514770 1.0111576840
C -3.5947782180 -3.6741173500 1.2001683270
C -4.0021939940 -2.3626408950 0.9765219870
C -3.0801939650 -1.4062130150 0.5673143630
H -0.3007707580 -3.2976573390 0.4474906250
H -1.9365053770 -5.0378965880 1.1836720630
H -4.3109253070 -4.4206852270 1.5189422390
H -5.0395261040 -2.0879439340 1.1219389730
H -3.3704204100 -0.3813875730 0.3869934710
