10
-2 1
N -1.3109183160 3.1855489600 0.2547642940
H -0.9697647110 2.6462000900 -0.5526846810
H -0.9182236950 2.5574460920 0.9685223900
H -2.3064946900 2.9748712340 0.2761121730
C 0.1532552510 -0.0415207770 -0.0072967020
O -0.0362706790 0.5899848660 -1.0883229720
O 0.0521719640 0.4421165490 1.1582917970
C 0.5404365340 -1.5524046360 -0.1221377070
O 1.7706562910 -1.8181852290 -0.1896815200
O -0.4139497540 -2.3763469300 -0.1372136890
