17
-1 1
H 1.5013039150 2.2279710990 2.2607934230
H 1.4362395700 1.6670427980 0.5704118960
H 2.1208807960 0.6291938660 1.8317731700
H -0.0507381900 -0.0699896850 1.3109163860
H -1.9998253330 1.1650183960 1.7008451240
H -1.0203799850 2.5558747120 2.1806604850
H -0.9953871140 1.9832161380 0.4931429460
C 1.3339376850 1.3546574910 1.6196290150
N 0.0384926630 0.7621326090 1.9074416300
C -1.0419973110 1.6636034510 1.5441335250
C -0.1752236120 -1.9445272070 -2.4472857740
C -0.0839895190 -0.9543315120 -1.2580470940
O -0.1886495490 -1.4818198340 -0.1190599730
O 0.0814737190 0.2527407530 -1.5331600930
H 0.6065323480 -2.7007929400 -2.3527562390
H -0.0737442740 -1.4312461670 -3.4026121300
H -1.1329753280 -2.4676108570 -2.4127787630
