14
-1 1
N -0.6069518040 1.0383484310 2.1660713420
H -0.5332342310 0.2524321660 1.5073078350
H -0.2127655130 0.7153821430 3.0411353800
C 0.1844051510 2.1476412020 1.6387233760
H -0.0411098680 3.0762007700 2.1750831070
H 1.2730612670 1.9943577190 1.6792545750
H -0.0676528370 2.2758730130 0.5877916330
C 0.2959893780 -1.5545558070 -1.7253992190
C 0.0056973950 -0.4526167110 -0.6723090250
O -0.2348611450 -0.8790526800 0.4875718890
O 0.0321722430 0.7313909610 -1.0683718440
H -0.5906890740 -2.1810145990 -1.8446131370
H 1.1005676280 -2.2013784680 -1.3704891510
H 0.5662131150 -1.1245129550 -2.6891173300
