10
-1 1
N -1.1506094470 0.9442881670 1.1818644630
H -1.0610023250 0.4666333370 0.2781471740
H -0.9592703590 0.1956185990 1.8386896270
C -0.0456484940 1.8989275110 1.2599058970
H -0.0133548220 2.3670820430 2.2482156520
H 0.9367768370 1.4543427550 1.0564357560
H -0.2031786020 2.6954287430 0.5300074920
N 1.4636999090 -1.8747957970 -2.8301412930
O 0.4854106670 -1.1274372710 -3.1023111680
O 1.5799812030 -2.2267796180 -1.6351033920
