18
-1 1
N -1.5688322220 4.2864673430 0.3873667580
H -1.1934920760 3.5692730490 -0.2413439280
H -1.3789230150 3.8670191760 1.2933872990
H -2.5767830410 4.2420007380 0.2778191000
O -0.4077981580 1.6538115140 -0.8746410720
C -0.2082034530 0.9851087080 0.1682251260
O -0.3011771490 1.3495125820 1.3596869890
C 0.2056695920 -0.4834731200 -0.0557581900
C 0.4531113050 -1.3242038420 1.0275983300
C 0.8258314310 -2.6490991850 0.8318851930
C 0.9571234630 -3.1542173800 -0.4583396100
C 0.7125626590 -2.3224073910 -1.5469772260
C 0.3401160210 -0.9984601890 -1.3436000220
H 0.3436847250 -0.9046650850 2.0175007570
H 1.0149967860 -3.2908949160 1.6837469100
H 1.2474045090 -4.1856473530 -0.6138315590
H 0.8132497310 -2.7089064290 -2.5538627540
H 0.1443865870 -0.3301493380 -2.1698853100
