8
-2 1
N -0.9577642320 2.2080819120 -0.9717895120
H -0.0979263850 1.7617289850 -0.5419483650
H -1.4222560810 2.6196103070 -0.1626143120
H -1.4383590520 1.3051264000 -1.0739836440
C 0.5256797980 -0.9306215280 0.4525133370
O 1.1716365620 0.2155424720 0.4249376990
O -0.6312620440 -1.0264469560 -0.1397340020
O 1.0423822700 -1.9420304340 1.0633515800
