8
-2 1
N -0.9577642320 2.2080819120 -0.9717895120
H -0.0979263850 1.7617289850 -0.5419483650
H -1.4222560810 2.6196103070 -0.1626143120
H -1.4383590520 1.3051264000 -1.0739836440
C 0.0686371370 -0.3739943830 0.1044343540
O 0.7145939010 0.7721696170 0.0768587160
O -1.0883047060 -0.4698198110 -0.4878129850
O 0.5853396080 -1.3854032890 0.7152725970
