21
-1 1
N -0.0582902440 3.5977249310 2.1544998140
H -0.4645431530 2.6886197840 1.9123542850
H 0.8497083280 3.3465891450 2.5294959350
C 0.1644314410 4.3053959530 0.8922504000
H 0.6943276870 5.2454364520 1.0720852740
H 0.7297402470 3.7193282360 0.1588282740
H -0.7997228960 4.5593440290 0.4469379690
O -0.8748789380 0.9337727660 1.0389655880
C 0.1613568540 0.5099989050 0.4701946230
O 1.2971294310 1.0273611890 0.4368040800
C 0.0033155960 -0.8239581320 -0.2850401160
C 1.0844470420 -1.3899288710 -0.9576746120
C 0.9485153610 -2.5926807580 -1.6412668450
C -0.2782944840 -3.2496063700 -1.6611387350
C -1.3640475860 -2.6923726840 -0.9922965670
C -1.2209125530 -1.4890626910 -0.3108340380
H 2.0244157940 -0.8577160930 -0.9249914560
H 1.7976318350 -3.0208234410 -2.1598640130
H -0.3871198100 -4.1865108130 -2.1927284620
H -2.3216736110 -3.1983620040 -1.0038482580
H -2.0467175370 -1.0335364140 0.2165420240
