11
-1 1
N -1.6169376940 2.0840627060 -1.2122277330
H -0.9517894320 1.6170287600 -0.5730613800
H -2.5014275670 2.1060331970 -0.7167482790
H -1.7515914210 1.4385669870 -1.9824933160
C 0.1471146180 -0.9899950690 -1.1059419840
C 0.3891992840 -0.4505443710 0.3324163140
O 0.0107826500 0.7350797490 0.5283980910
O 0.9213758680 -1.2333181750 1.1434248560
H 0.5952513010 -0.3139925980 -1.8369794900
H -0.9264568830 -1.0162407370 -1.3071487310
H 0.5598702270 -1.9903621690 -1.2294888520
