28
-1 1
H 1.8835169240 0.4662966640 -0.4107839250
H 5.4850916270 2.8098064440 -0.1128374070
H 4.3066214410 0.6247256210 0.0260634220
H 1.7699912060 4.6896816940 -1.1416674500
H -0.2007132920 1.6257847050 -0.7817087680
H 4.1815202160 4.8426971670 -0.6963866340
H -0.2111834590 3.3124215670 -1.0777986510
C 4.4237075680 2.7442869910 -0.3088167220
C 3.7565485420 1.5202993520 -0.2345177220
C 2.3991152530 1.4174871990 -0.4808674040
C 1.6526873400 2.5644748800 -0.8172683660
C 2.3278488620 3.7964144290 -0.8856685860
C 3.6902261220 3.8792621040 -0.6354640340
N 0.3175829020 2.4586127240 -1.1052229340
O -1.8338426580 -0.2989213620 0.1009004060
C -1.3739725740 -1.4583663500 0.2762125740
O -0.2001511100 -1.8487477250 0.1280902200
C -2.3949862820 -2.5123580730 0.7286094520
C -1.9962279340 -3.8280202100 0.9549722810
C -2.9131447740 -4.7888339040 1.3642013540
C -4.2480299640 -4.4439997770 1.5532119970
C -4.6554457400 -3.1325233220 1.3295656570
C -3.7334457120 -2.1760954420 0.9203580330
H -0.9540225040 -4.0675397660 0.8005342950
H -2.5897571240 -5.8077790150 1.5367157330
H -4.9641770540 -5.1905676540 1.8719859090
H -5.6927778500 -2.8578263610 1.4749826430
H -4.0236721560 -1.1512700000 0.7400371410
