28
-1 1
H 1.8835169240 0.4662966640 -0.4107839250
H 5.4850916270 2.8098064440 -0.1128374070
H 4.3066214410 0.6247256210 0.0260634220
H 1.7699912060 4.6896816940 -1.1416674500
H -0.2007132920 1.6257847050 -0.7817087680
H 4.1815202160 4.8426971670 -0.6963866340
H -0.2111834590 3.3124215670 -1.0777986510
C 4.4237075680 2.7442869910 -0.3088167220
C 3.7565485420 1.5202993520 -0.2345177220
C 2.3991152530 1.4174871990 -0.4808674040
C 1.6526873400 2.5644748800 -0.8172683660
C 2.3278488620 3.7964144290 -0.8856685860
C 3.6902261220 3.8792621040 -0.6354640340
N 0.3175829020 2.4586127240 -1.1052229340
O -1.1261532660 0.5351179340 -0.2815635690
C -0.6662831820 -0.6243270540 -0.1062514010
O 0.5075382820 -1.0147084290 -0.2543737550
C -1.6872968900 -1.6783187770 0.3461454770
C -1.2885385410 -2.9939809140 0.5725083060
C -2.2054553810 -3.9547946080 0.9817373790
C -3.5403405720 -3.6099604810 1.1707480220
C -3.9477563480 -2.2984840260 0.9471016820
C -3.0257563190 -1.3420561460 0.5378940580
H -0.2463331120 -3.2335004700 0.4180703200
H -1.8820677310 -4.9737397190 1.1542517580
H -4.2564876610 -4.3565283580 1.4895219340
H -4.9850884580 -2.0237870650 1.0925186680
H -3.3159827640 -0.3172307040 0.3575731660
