18
-1 1
N -1.5688322220 4.2864673430 0.3873667580
H -1.1934920760 3.5692730490 -0.2413439280
H -1.3789230150 3.8670191760 1.2933872990
H -2.5767830410 4.2420007380 0.2778191000
O -0.4826261500 1.8362364220 -0.8143270580
C -0.2830314450 1.1675336160 0.2285391400
O -0.3760051410 1.5319374900 1.4200010030
C 0.1308416000 -0.3010482120 0.0045558240
C 0.3782833130 -1.1417789340 1.0879123440
C 0.7510034390 -2.4666742770 0.8921992070
C 0.8822954710 -2.9717924720 -0.3980255960
C 0.6377346670 -2.1399824830 -1.4866632120
C 0.2652880290 -0.8160352810 -1.2832860080
H 0.2688567330 -0.7222401770 2.0778147710
H 0.9401687940 -3.1084700080 1.7440609240
H 1.1725765170 -4.0032224450 -0.5535175450
H 0.7384217390 -2.5264815210 -2.4935487400
H 0.0695585950 -0.1477244300 -2.1095712960
