10
-2 1
N -1.3109183160 3.1855489600 0.2547642940
H -0.9697647110 2.6462000900 -0.5526846810
H -0.9182236950 2.5574460920 0.9685223900
H -2.3064946900 2.9748712340 0.2761121730
C 0.9404110160 -1.7662296870 -0.1502948430
O 0.7508850860 -1.1347240440 -1.2313211130
O 0.8393277290 -1.2825923610 1.0152936560
C 1.3275922990 -3.2771135460 -0.2651358480
O 2.5578120560 -3.5428941390 -0.3326796610
O 0.3732060110 -4.1010558400 -0.2802118300
