10
-2 1
N -1.3109183160 3.1855489600 0.2547642940
H -0.9697647110 2.6462000900 -0.5526846810
H -0.9182236950 2.5574460920 0.9685223900
H -2.3064946900 2.9748712340 0.2761121730
C -0.1091300040 0.5333821930 0.0403693450
O -0.2986559340 1.1648878360 -1.0406569250
O -0.2102132910 1.0170195190 1.2059578440
C 0.2780512790 -0.9775016660 -0.0744716600
O 1.5082710360 -1.2432822590 -0.1420154730
O -0.6763350090 -1.8014439600 -0.0895476420
