17
-1 1
H -1.1207950910 -0.3745503440 1.5328285780
H 0.0939214930 -1.8501465160 3.4985162900
H 2.6139376500 -2.3243955220 2.5879936380
H 2.7538218750 -1.1163589610 0.1572055140
N 0.7397369460 -0.5713647630 0.5648649470
C -0.1259078200 -0.7790967670 1.5923519510
C 0.5176907960 -1.5241959200 2.5630389670
C 1.8348485780 -1.7725599950 2.0880743350
C 1.9315625360 -1.1665223020 0.8494090070
H 0.4990832900 -0.0302463270 -0.3040088440
C -1.6457695180 2.2679369360 -3.1797288460
C -1.1814181600 1.4570188000 -1.9516926890
O 0.0135656820 1.0394278200 -2.0124794590
O -1.9937856180 1.2819774360 -1.0261117430
H -1.5581401060 1.6529711180 -4.0771415200
H -0.9914458060 3.1305944860 -3.3167062920
H -2.6749927580 2.6031164320 -3.0650894690
