10
0 1
H -0.3700350790 1.0751811770 3.0353907580
H 0.5017865170 0.8240744800 5.6205978270
H 2.4324650530 -1.0911020990 5.5473892270
H 2.6001656650 -1.8647359890 2.9479681320
N 1.0641240170 -0.4229306760 2.6577971580
C 0.3820945790 0.4359507390 3.4622463210
C 0.8458029640 0.2829694190 4.7549436640
C 1.8552251520 -0.7179481940 4.7176363040
C 1.9602346760 -1.1292426380 3.4028473730
H 0.9056961740 -0.5081085160 1.6297592680
