24
-1 1
H -0.3700350790 1.0751811770 3.0353907580
H 0.5017865170 0.8240744800 5.6205978270
H 2.4324650530 -1.0911020990 5.5473892270
H 2.6001656650 -1.8647359890 2.9479681320
N 1.0641240170 -0.4229306760 2.6577971580
C 0.3820945790 0.4359507390 3.4622463210
C 0.8458029640 0.2829694190 4.7549436640
C 1.8552251520 -0.7179481940 4.7176363040
C 1.9602346760 -1.1292426380 3.4028473730
H 0.9056961740 -0.5081085160 1.6297592680
O 0.6037770300 -0.6417579500 -0.2060448720
C -0.3020753190 0.1673891680 -0.5538552520
O -0.9332810600 0.9578461860 0.1698062620
C -0.6523064430 0.1615303300 -2.0465648220
C -1.6373598710 1.0141866000 -2.5402607360
C -1.9629413950 1.0173622820 -3.8911763420
C -1.3036847610 0.1630649080 -4.7698776220
C -0.3185901770 -0.6918452940 -4.2856545100
C 0.0027583050 -0.6905239900 -2.9332512280
H -2.1326181070 1.6664494800 -1.8355025440
H -2.7305225110 1.6850217780 -4.2620057180
H -1.5555061350 0.1636598220 -5.8226634260
H 0.1979400740 -1.3589101240 -4.9644014920
H 0.7634168880 -1.3443296500 -2.5323292880
