17
-1 1
H 1.5013039150 2.2279710990 2.2607934230
H 1.4362395700 1.6670427980 0.5704118960
H 2.1208807960 0.6291938660 1.8317731700
H -0.0507381900 -0.0699896850 1.3109163860
H -1.9998253330 1.1650183960 1.7008451240
H -1.0203799850 2.5558747120 2.1806604850
H -0.9953871140 1.9832161380 0.4931429460
C 1.3339376850 1.3546574910 1.6196290150
N 0.0384926630 0.7621326090 1.9074416300
C -1.0419973110 1.6636034510 1.5441335250
C -0.1686564040 -1.8772972000 -2.3791916620
C -0.0774223110 -0.8871015050 -1.1899529820
O -0.1820823410 -1.4145898270 -0.0509658610
O 0.0880409270 0.3199707600 -1.4650659810
H 0.6130995560 -2.6335629330 -2.2846621270
H -0.0671770660 -1.3640161600 -3.3345180180
H -1.1264081200 -2.4003808500 -2.3446846510
