11
-1 1
N -0.8542661850 0.8031872640 2.1198502530
H -0.9912104800 0.2582495430 1.2657541700
H -0.0953993620 0.3206241670 2.5871786610
C -0.3680129270 2.1216267690 1.7107571640
H -0.1091855010 2.7189337570 2.5895715780
H 0.5017900350 2.0816530410 1.0453509210
H -1.1645362950 2.6507443100 1.1843221000
N 0.2812714120 -0.5546418720 -0.5836396080
O -0.9199443350 -0.4193885010 -0.2164715380
O 0.5388634110 -1.1022708120 -1.6759778780
O 1.2068758850 -0.1370951650 0.1537211290
