7
-1 1
C 0.0401621650 -0.8920007350 -1.2283263690
C 0.2822468310 -0.3525500370 0.2100319290
O -0.0961698030 0.8330740830 0.4060137060
O 0.8144234150 -1.1353238410 1.0210404710
H 0.4882988480 -0.2159982640 -1.9593638750
H -1.0334093360 -0.9182464030 -1.4295331160
H 0.4529177740 -1.8923678350 -1.3518732370
