11
-1 1
N -1.6169376940 2.0840627060 -1.2122277330
H -0.9517894320 1.6170287600 -0.5730613800
H -2.5014275670 2.1060331970 -0.7167482790
H -1.7515914210 1.4385669870 -1.9824933160
C 0.2540670720 -1.0879894040 -0.9835575980
C 0.4961517380 -0.5485387060 0.4548007000
O 0.1177351040 0.6370854140 0.6507824770
O 1.0283283220 -1.3313125100 1.2658092420
H 0.7022037550 -0.4119869330 -1.7145951040
H -0.8195044290 -1.1142350720 -1.1847643450
H 0.6668226810 -2.0883565040 -1.1071044660
