24
-1 1
H -0.3700350790 1.0751811770 3.0353907580
H 0.5017865170 0.8240744800 5.6205978270
H 2.4324650530 -1.0911020990 5.5473892270
H 2.6001656650 -1.8647359890 2.9479681320
N 1.0641240170 -0.4229306760 2.6577971580
C 0.3820945790 0.4359507390 3.4622463210
C 0.8458029640 0.2829694190 4.7549436640
C 1.8552251520 -0.7179481940 4.7176363040
C 1.9602346760 -1.1292426380 3.4028473730
H 0.9056961740 -0.5081085160 1.6297592680
O 0.4939882500 -0.6903577440 -0.8736100140
C -0.4118640980 0.1187893740 -1.2214203940
O -1.0430698400 0.9092463920 -0.4977588800
C -0.7620952220 0.1129305360 -2.7141299640
C -1.7471486500 0.9655868060 -3.2078258780
C -2.0727301740 0.9687624880 -4.5587414840
C -1.4134735400 0.1144651140 -5.4374427640
C -0.4283789560 -0.7404450880 -4.9532196520
C -0.1070304740 -0.7391237840 -3.6008163700
H -2.2424068860 1.6178496860 -2.5030676860
H -2.8403112900 1.6364219840 -4.9295708600
H -1.6652949140 0.1150600280 -6.4902285680
H 0.0881512940 -1.4075099180 -5.6319666340
H 0.6536281080 -1.3929294440 -3.1998944300
