11
-1 1
N -0.8542661850 0.8031872640 2.1198502530
H -0.9912104800 0.2582495430 1.2657541700
H -0.0953993620 0.3206241670 2.5871786610
C -0.3680129270 2.1216267690 1.7107571640
H -0.1091855010 2.7189337570 2.5895715780
H 0.5017900350 2.0816530410 1.0453509210
H -1.1645362950 2.6507443100 1.1843221000
N 0.2901796800 -0.6393466280 -0.7689178220
O -0.9110360670 -0.5040932560 -0.4017497520
O 0.5477716790 -1.1869755680 -1.8612560920
O 1.2157841530 -0.2217999200 -0.0315570850
