21
-1 1
N -0.0582902440 3.5977249310 2.1544998140
H -0.4645431530 2.6886197840 1.9123542850
H 0.8497083280 3.3465891450 2.5294959350
C 0.1644314410 4.3053959530 0.8922504000
H 0.6943276870 5.2454364520 1.0720852740
H 0.7297402470 3.7193282360 0.1588282740
H -0.7997228960 4.5593440290 0.4469379690
O -0.8953957270 0.8460304150 0.9952961530
C 0.1408400650 0.4222565540 0.4265251880
O 1.2766126420 0.9396188380 0.3931346450
C -0.0172011930 -0.9117004830 -0.3287095510
C 1.0639302530 -1.4776712220 -1.0013440470
C 0.9279985720 -2.6804231090 -1.6849362800
C -0.2988112730 -3.3373487210 -1.7048081700
C -1.3845643750 -2.7801150350 -1.0359660020
C -1.2414293420 -1.5768050420 -0.3545034730
H 2.0038990050 -0.9454584440 -0.9686608910
H 1.7771150460 -3.1085657920 -2.2035334480
H -0.4076365990 -4.2742531640 -2.2363978970
H -2.3421904000 -3.2861043550 -1.0475176930
H -2.0672343260 -1.1212787650 0.1728725890
