17
-1 1
H 1.5013039150 2.2279710990 2.2607934230
H 1.4362395700 1.6670427980 0.5704118960
H 2.1208807960 0.6291938660 1.8317731700
H -0.0507381900 -0.0699896850 1.3109163860
H -1.9998253330 1.1650183960 1.7008451240
H -1.0203799850 2.5558747120 2.1806604850
H -0.9953871140 1.9832161380 0.4931429460
C 1.3339376850 1.3546574910 1.6196290150
N 0.0384926630 0.7621326090 1.9074416300
C -1.0419973110 1.6636034510 1.5441335250
C -0.2343284800 -2.5495972710 -3.0601327860
C -0.1430943860 -1.5594015760 -1.8708941060
O -0.2477544160 -2.0868898980 -0.7319069840
O 0.0223688520 -0.3523293110 -2.1460071040
H 0.5474274800 -3.3058630040 -2.9656032500
H -0.1328491420 -2.0363162310 -4.0154591420
H -1.1920801960 -3.0726809210 -3.0256257740
