11
-1 1
N -1.6169376940 2.0840627060 -1.2122277330
H -0.9517894320 1.6170287600 -0.5730613800
H -2.5014275670 2.1060331970 -0.7167482790
H -1.7515914210 1.4385669870 -1.9824933160
C 0.3075432990 -1.1369865710 -0.9223654050
C 0.5496279650 -0.5975358730 0.5159928930
O 0.1712113310 0.5880882470 0.7119746700
O 1.0818045490 -1.3803096770 1.3270014350
H 0.7556799820 -0.4609841000 -1.6534029110
H -0.7660282020 -1.1632322390 -1.1235721520
H 0.7202989080 -2.1373536710 -1.0459122730
