14
-1 1
C -0.5146619850 -0.0307910830 1.8515980730
H -0.7465552730 0.8522784110 2.4469252110
H 0.5637427660 -0.1497483290 1.7736326370
H -0.9449784420 -0.8917564400 2.3630425020
C -1.1801663050 0.1101789560 0.4949658410
O -2.4013885320 0.2545605440 0.3886538840
N -0.3430890950 0.0647046350 -0.5492123450
H 0.6789218420 -0.0586293630 -0.4034773910
C -0.8292808690 0.1850246220 -1.9010633320
H -1.5403476680 -0.6079330350 -2.1445217870
H -1.3407504610 1.1371240750 -2.0610452570
H 0.0230737000 0.1197257590 -2.5735509650
C 4.4462517040 -0.5058504720 0.0648885740
N 3.2981104080 -0.3704514760 -0.1030094390
