9
-1 1
N -1.0436109180 0.3865553720 1.1637296800
H -0.7406672340 -0.1660714880 0.3514527590
H -0.7699630390 -0.1627777010 1.9700561540
C -0.2830929870 1.6330393830 1.1571983010
H -0.5234967600 2.2339478290 2.0394558520
H 0.8065421270 1.5017327980 1.1176683080
H -0.5637464450 2.2164921180 0.2792895360
C 1.3767711970 -1.4425652080 -1.8566338700
N 0.4335232740 -1.1146339460 -1.2489175820
