16
-1 1
H 0.4420951610 -1.4225478370 -0.0277266520
H 3.5872908800 1.4912895550 -0.3531351550
H 2.8414752660 -0.8639444880 -0.0778766940
H -0.5187532110 2.7195280870 -0.5281236940
H -1.8344380840 -0.6594462950 0.0723905470
H 1.8719655340 3.2755660920 -0.5699419400
H -2.1976924490 1.0119736400 -0.1545796340
C 2.5345052070 1.2467823290 -0.3350824870
C 2.1092241210 -0.0733711290 -0.1835941160
C 0.7656163450 -0.3997989240 -0.1587482270
C -0.2197457700 0.6011732490 -0.2872301990
C 0.2186831540 1.9316999830 -0.4315737590
C 1.5698742530 2.2417107000 -0.4560242340
N -1.5416834770 0.2659295310 -0.3058077250
C -2.3730768800 -2.3710467910 0.8342610900
N -2.7063630820 -3.3882196520 1.2961418170
