14
-1 1
C -0.5702859090 -0.6695567990 1.7602935710
H -1.2414776210 -0.1465268550 2.4413520840
H 0.4235359780 -0.2304950720 1.8144365180
H -0.5301519330 -1.7117611580 2.0766644940
C -1.1538734780 -0.6085625110 0.3604556060
O -2.2752333690 -1.0607315080 0.1124072460
N -0.3622442980 -0.0352050130 -0.5540469690
H 0.5803064420 0.3328982620 -0.2945079500
C -0.7772742890 0.0965322390 -1.9279406120
H -1.6900851350 0.6900751720 -2.0176552740
H 0.0246689920 0.5885452550 -2.4745183890
H -0.9780940640 -0.8762139590 -2.3829039430
C 2.4826657210 1.1070713110 0.0937974030
N 3.5438590620 1.5387783210 0.3058434890
