9
-1 1
N -0.7822516380 0.6563041540 1.3774369750
H -0.6405060020 0.0286014060 0.5724822500
H -0.4268952530 0.1422990720 2.1753286120
C 0.0414502580 1.8424358330 1.1669306980
H -0.0285522530 2.5161653700 2.0260698250
H 1.1046524900 1.6351241070 0.9819977560
H -0.3311982350 2.3849879540 0.2969935960
C -0.0168187570 -0.8892228700 -0.7393273210
N 0.4948146380 -1.5298019450 -1.5705164480
