8
-1 1
  C    0.084222055   2.695247637   0.000000000
  H   -0.092113573   1.617664288   0.000000000
  H    0.653080794   2.973788964   0.887209552
  H   -0.865901658   3.230824893   0.000000000
  H    0.653080794   2.973788964  -0.887209552
  N   -0.050651924  -1.284956564   0.000000000
  O   -1.006082862  -0.467371330   0.000000000
  O    1.103624724  -0.794465620   0.000000000
