12
-1 1
C -0.0263051990 -3.2410039820 -0.0026598730
H -0.2621385630 -2.1743069660 -0.0001938350
H 0.5584684910 -3.4881321470 0.8832983150
H 0.5578167710 -3.4840098840 -0.8901730060
H -0.9436723090 -3.8315629650 -0.0037048090
C -0.9993694100 4.4466655230 0.0029042260
C -0.6453006770 2.9303193780 0.0040014170
O -1.6346960870 2.1573050380 0.0061126310
O 0.5708569880 2.6392130580 0.0025323720
H -1.6055589070 4.6781932910 -0.8757507190
H -0.1043015180 5.0685333600 0.0024304570
H -1.6058265270 4.6796520780 0.8809753640
