14
-1 1
O 0.3279949450 -1.0514655970 0.2708177880
C 0.3279171710 0.1978336430 0.1886712710
O -0.4998893320 0.9446789360 -0.3809889820
C 1.5049243790 0.9124050270 0.8819550290
C 1.6086593020 2.3017793910 0.8562185370
C 2.6686143800 2.9495501740 1.4803370300
C 3.6452207980 2.2118140750 2.1427595840
C 3.5505641830 0.8236942840 2.1741151780
C 2.4877923030 0.1827218130 1.5477729630
H 0.8364124460 2.8489721840 0.3347820830
H 2.7361208750 4.0302400380 1.4520265840
H 4.4718192470 2.7136558940 2.6296923840
H 4.3071820850 0.2433420610 2.6878950900
H 2.3889639440 -0.8933107510 1.5560784990
