9
-1 1
C -2.1142734430 1.6009572370 -1.8112702430
H -1.4574721760 1.1399802090 -1.0745996960
H -1.5193389710 2.1583718180 -2.5341141360
H -2.8106314570 2.2800337690 -1.3190000420
H -2.6759571100 0.8280055340 -2.3349030390
N 0.4328194850 -0.3423384790 0.2712003790
O -0.4145035910 0.4801973180 0.7067976580
O 0.5097125430 -0.5643511920 -0.9625812560
O 1.1962403420 -0.9367918300 1.0677675440
