10
-2 1
C 3.2208188530 0.1693744300 -0.2306002820
H 2.0797444810 0.0960591100 -0.0334248810
C 4.4099741320 0.2460692410 -0.4390148710
H 5.4504340230 0.3147022980 -0.6338699020
C -1.9406924200 -0.1135181550 0.2408834480
O -0.8975802490 -0.1551292600 0.9845277230
O -1.9328433790 0.0337888390 -1.0007389410
C -3.3128230590 -0.2607095180 0.9690133850
O -3.8576649770 0.8060697400 1.3587341080
O -3.7582590570 -1.4323607630 1.0937950500
