9
-1 1
C -2.1142734430 1.6009572370 -1.8112702430
H -1.4574721760 1.1399802090 -1.0745996960
H -1.5193389710 2.1583718180 -2.5341141360
H -2.8106314570 2.2800337690 -1.3190000420
H -2.6759571100 0.8280055340 -2.3349030390
N 0.3748767860 -0.3056838740 0.1722338590
O -0.4724462900 0.5168519230 0.6078311380
O 0.4517698440 -0.5276965870 -1.0615477760
O 1.1382976430 -0.9001372250 0.9688010240
