12
-2 1
H 0.0730862400 2.6884251980 -0.2301346850
H 0.0513000700 4.3543105320 -1.1286053440
H -0.1802022780 3.0975725900 -3.2580564060
H -0.1456211600 1.5032210820 -2.2385938490
C 0.0112150630 3.2662297110 -1.1556682720
C -0.1126368630 2.5940893200 -2.2946275110
C 0.0063040710 -0.3558631600 0.2094084050
O 0.1058213600 0.7116220330 0.8815013640
O -0.1102091430 -0.4285016040 -1.0484542990
C 0.0293374690 -1.7030870020 1.0027973050
O -1.0843931200 -2.1490344540 1.3923691750
O 1.1597487930 -2.2315330850 1.1870805370
