11
-1 1
C 2.4044346860 -0.2417185520 -0.7872545060
H 1.4004410980 -0.2636979260 -0.3353439380
C 3.5025846370 -0.2223354860 -1.2768424920
H 4.4685370310 -0.1998122890 -1.7129896380
C -2.3931666720 -0.2748911750 1.3040777580
C -1.2205219150 0.1424186510 0.3794424280
O -0.1502737280 -0.5009317950 0.5675550030
O -1.4361623490 1.0513009390 -0.4434859550
H -2.1003428330 -0.1415479930 2.3474683220
H -2.6078879710 -1.3363302220 1.1647710970
H -3.2891517290 0.3093703180 1.0984912330
