7
-1 1
C -0.9225768230 0.9534120810 -0.8446725620
H -0.2572009710 0.2669600490 -0.2629268670
H -0.3285557280 1.6520747260 -1.4396934540
H -1.5545840660 1.5296991320 -0.1632186570
H -1.5689623020 0.3840242250 -1.5177468400
O 0.9411537010 -0.9682364440 0.7921507620
H 0.7201947060 -0.8105746530 1.7165653510
