8
-1 1
C 2.4464982860 -0.2244212470 -0.2091538660
H 1.3684948950 -0.1445288840 -0.3231155530
C 3.6388479190 -0.3143582670 -0.1007124710
H 4.6906953390 -0.3929440950 0.0042458480
N -1.0980684230 0.1039312260 0.1282322460
O -0.2990932720 -0.0528979120 -0.8417269190
O -0.6446546170 0.1737401320 1.2929292840
O -2.3240940170 0.1867908500 -0.0875824570
