7
-1 1
C -0.9225768230 0.9534120810 -0.8446725620
H -0.2572009710 0.2669600490 -0.2629268670
H -0.3285557280 1.6520747260 -1.4396934540
H -1.5545840660 1.5296991320 -0.1632186570
H -1.5689623020 0.3840242250 -1.5177468400
O 0.7699601770 -0.7917798020 0.6414253860
H 0.5490011820 -0.6341180110 1.5658399750
