13
-1 1
H -0.6169135250 1.9605578200 -0.3545684900
H -0.9910477280 3.2636289290 -1.6462664990
H -0.3677185130 1.6258632120 -3.3908215240
H -0.0167055540 0.3833510940 -2.0341940780
C -0.6679065190 2.2570089260 -1.3980526740
C -0.3334113870 1.3780755390 -2.3340449920
C 0.5216522340 -2.0167476010 2.0504125690
C 0.2678028140 -0.9320708140 0.9657719770
O -0.1141801610 0.1867116370 1.3820680570
O 0.4541193380 -1.3033635910 -0.2172816220
H 0.6154274070 -1.5745216470 3.0421285010
H 1.4150341440 -2.5943900990 1.8088238540
H -0.3232873470 -2.7101921760 2.0567928610
