8
-1 1
C 0.0842220550 2.6952476370 0.0000000000
H -0.0921135730 1.6176642880 0.0000000000
H 0.6530807940 2.9737889640 0.8872095520
H -0.8659016580 3.2308248930 0.0000000000
H 0.6530807940 2.9737889640 -0.8872095520
N -0.3392738050 -1.9433888650 0.0000000000
O -1.2947047430 -1.1258036310 0.0000000000
O 0.8150028430 -1.4528979210 0.0000000000
