10
-2 1
C 3.2208188530 0.1693744300 -0.2306002820
H 2.0797444810 0.0960591100 -0.0334248810
C 4.4099741320 0.2460692410 -0.4390148710
H 5.4504340230 0.3147022980 -0.6338699020
C -0.8241956460 -0.0193225160 -0.1408487780
O 0.2189165250 -0.0609336210 0.6027954960
O -0.8163466050 0.1279844780 -1.3824711680
C -2.1963262850 -0.1665138790 0.5872811580
O -2.7411682030 0.9002653790 0.9770018820
O -2.6417622830 -1.3381651240 0.7120628240
