9
-1 1
H 0.0473417900 0.8090827920 -0.7526521710
H -0.3721775460 2.5655752440 -0.3502225770
H 0.0945972180 3.2518341160 -2.6617732420
H 0.5174008390 1.5101077300 -3.0873502560
C -0.0523945210 1.8404824520 -1.0900131790
C 0.1971091730 2.2223069240 -2.3362418580
N -0.1307260910 -0.9985555760 1.2171393320
O 0.2271458620 -1.3608119400 0.0630181970
O -0.1923614380 -1.8929471760 2.0868802820
