12
-1 1
C -0.0263051990 -3.2410039820 -0.0026598730
H -0.2621385630 -2.1743069660 -0.0001938350
H 0.5584684910 -3.4881321470 0.8832983150
H 0.5578167710 -3.4840098840 -0.8901730060
H -0.9436723090 -3.8315629650 -0.0037048090
C -0.4846603380 2.8223110220 0.0005393010
C -0.1305916060 1.3059648760 0.0016364920
O -1.1199870160 0.5329505360 0.0037477060
O 1.0855660600 1.0148585560 0.0001674470
H -1.0908498360 3.0538387900 -0.8781156440
H 0.4104075540 3.4441788580 0.0000655320
H -1.0911174560 3.0552975760 0.8786104390
