9
-1 1
C -2.1142734430 1.6009572370 -1.8112702430
H -1.4574721760 1.1399802090 -1.0745996960
H -1.5193389710 2.1583718180 -2.5341141360
H -2.8106314570 2.2800337690 -1.3190000420
H -2.6759571100 0.8280055340 -2.3349030390
N 0.5487048830 -0.4156476890 0.4691334180
O -0.2986181930 0.4068881080 0.9047306970
O 0.6255979410 -0.6376604020 -0.7646482170
O 1.3121257400 -1.0101010400 1.2657005830
