9
-1 1
C -2.1142734430 1.6009572370 -1.8112702430
H -1.4574721760 1.1399802090 -1.0745996960
H -1.5193389710 2.1583718180 -2.5341141360
H -2.8106314570 2.2800337690 -1.3190000420
H -2.6759571100 0.8280055340 -2.3349030390
N 0.4907621840 -0.3789930840 0.3701668980
O -0.3565608920 0.4435427130 0.8057641770
O 0.5676552420 -0.6010057970 -0.8636147370
O 1.2541830410 -0.9734464350 1.1667340630
