12
-2 1
H 0.0730862400 2.6884251980 -0.2301346850
H 0.0513000700 4.3543105320 -1.1286053440
H -0.1802022780 3.0975725900 -3.2580564060
H -0.1456211600 1.5032210820 -2.2385938490
C 0.0112150630 3.2662297110 -1.1556682720
C -0.1126368630 2.5940893200 -2.2946275110
C 0.0209067630 -1.1933891320 0.7026370340
O 0.1204240520 -0.1259039390 1.3747299930
O -0.0956064510 -1.2660275760 -0.5552256700
C 0.0439401610 -2.5406129740 1.4960259340
O -1.0697904280 -2.9865604260 1.8855978040
O 1.1743514850 -3.0690590570 1.6803091660
