12
-1 1
C -0.0263051990 -3.2410039820 -0.0026598730
H -0.2621385630 -2.1743069660 -0.0001938350
H 0.5584684910 -3.4881321470 0.8832983150
H 0.5578167710 -3.4840098840 -0.8901730060
H -0.9436723090 -3.8315629650 -0.0037048090
C -0.2787767100 2.1725692210 -0.0004066690
C 0.0752920230 0.6562230760 0.0006905220
O -0.9141033870 -0.1167912640 0.0028017360
O 1.2914496880 0.3651167560 -0.0007785230
H -0.8849662070 2.4040969890 -0.8790616140
H 0.6162911820 2.7944370580 -0.0008804380
H -0.8852338270 2.4055557760 0.8776644690
