8
-1 0
  C    0.084222055   2.695247637   0.000000000
  H   -0.092113573   1.617664288   0.000000000
  H    0.653080794   2.973788964   0.887209552
  H   -0.865901658   3.230824893   0.000000000
  H    0.653080794   2.973788964  -0.887209552
  N   -1.060828507  -3.589469616   0.000000000
  O   -2.016259445  -2.771884382   0.000000000
  O    0.093448141  -3.098978672   0.000000000
