7
-1 1
C -0.9225768230 0.9534120810 -0.8446725620
H -0.2572009710 0.2669600490 -0.2629268670
H -0.3285557280 1.6520747260 -1.4396934540
H -1.5545840660 1.5296991320 -0.1632186570
H -1.5689623020 0.3840242250 -1.5177468400
O 0.9982182090 -1.0270553240 0.8423925540
H 0.7772592140 -0.8693935330 1.7668071430
