26
-1 1
C -2.4454984560 -0.7153022570 -1.4848489420
H -1.8939238350 0.1737365960 -1.1991408920
C -1.9348458890 -1.9477987430 -1.0847602640
H -1.0149549050 -1.9477323980 -0.5103786380
C -2.6051351180 -3.1176260040 -1.4261639470
H -2.2093913860 -4.0764548570 -1.1158519620
C -3.7839568090 -3.0637441730 -2.1657907240
H -4.3031791540 -3.9764439210 -2.4298349670
C -4.2938227150 -1.8332276950 -2.5652699550
H -5.2100653210 -1.7877556760 -3.1403929580
C -3.6227514620 -0.6617289900 -2.2234606880
H -4.0209864380 0.2955896980 -2.5352348200
O 0.5845442900 -0.8951908950 0.4207316040
C 0.5844665160 0.3541083450 0.3385850870
O -0.2433399870 1.1009536380 -0.2310751660
C 1.7614737240 1.0686797290 1.0318688450
C 1.8652086470 2.4580540930 1.0061323530
C 2.9251637250 3.1058248760 1.6302508460
C 3.9017701430 2.3680887770 2.2926734000
C 3.8071135280 0.9799689860 2.3240289940
C 2.7443416480 0.3389965150 1.6976867790
H 1.0929617910 3.0052468860 0.4846958990
H 2.9926702200 4.1865147400 1.6019404000
H 4.7283685920 2.8699305960 2.7796062000
H 4.5637314300 0.3996167630 2.8378089060
H 2.6455132890 -0.7370360490 1.7059923150
