12
-2 1
H 0.0730862400 2.6884251980 -0.2301346850
H 0.0513000700 4.3543105320 -1.1286053440
H -0.1802022780 3.0975725900 -3.2580564060
H -0.1456211600 1.5032210820 -2.2385938490
C 0.0112150630 3.2662297110 -1.1556682720
C -0.1126368630 2.5940893200 -2.2946275110
C 0.0079265930 -0.4489216020 0.2642115860
O 0.1074438820 0.6185635910 0.9363045450
O -0.1085866210 -0.5215600460 -0.9936511180
C 0.0309599910 -1.7961454440 1.0576004860
O -1.0827705980 -2.2420928960 1.4471723560
O 1.1613713150 -2.3245915270 1.2418837180
