26
-1 1
C -2.4454984560 -0.7153022570 -1.4848489420
H -1.8939238350 0.1737365960 -1.1991408920
C -1.9348458890 -1.9477987430 -1.0847602640
H -1.0149549050 -1.9477323980 -0.5103786380
C -2.6051351180 -3.1176260040 -1.4261639470
H -2.2093913860 -4.0764548570 -1.1158519620
C -3.7839568090 -3.0637441730 -2.1657907240
H -4.3031791540 -3.9764439210 -2.4298349670
C -4.2938227150 -1.8332276950 -2.5652699550
H -5.2100653210 -1.7877556760 -3.1403929580
C -3.6227514620 -0.6617289900 -2.2234606880
H -4.0209864380 0.2955896980 -2.5352348200
O 0.7555771860 -0.7910077610 0.5206741480
C 0.7554994120 0.4582914790 0.4385276310
O -0.0723070910 1.2051367720 -0.1311326220
C 1.9325066200 1.1728628630 1.1318113890
C 2.0362415430 2.5622372270 1.1060748970
C 3.0961966210 3.2100080100 1.7301933900
C 4.0728030390 2.4722719110 2.3926159440
C 3.9781464240 1.0841521200 2.4239715380
C 2.9153745440 0.4431796490 1.7976293230
H 1.2639946870 3.1094300200 0.5846384430
H 3.1637031160 4.2906978740 1.7018829440
H 4.8994014880 2.9741137300 2.8795487440
H 4.7347643260 0.5037998970 2.9377514500
H 2.8165461850 -0.6328529150 1.8059348590
