10
-2 1
C 3.2208188530 0.1693744300 -0.2306002820
H 2.0797444810 0.0960591100 -0.0334248810
C 4.4099741320 0.2460692410 -0.4390148710
H 5.4504340230 0.3147022980 -0.6338699020
C -0.5264631730 0.0057963210 -0.2426440390
O 0.5166489980 -0.0358147840 0.5010002360
O -0.5186141320 0.1531033150 -1.4842664280
C -1.8985938120 -0.1413950420 0.4854858980
O -2.4434357300 0.9253842160 0.8752066210
O -2.3440298100 -1.3130462870 0.6102675630
