7
-1 1
C -0.9225768230 0.9534120810 -0.8446725620
H -0.2572009710 0.2669600490 -0.2629268670
H -0.3285557280 1.6520747260 -1.4396934540
H -1.5545840660 1.5296991320 -0.1632186570
H -1.5689623020 0.3840242250 -1.5177468400
O 0.8270246850 -0.8505986820 0.6916671780
H 0.6060656900 -0.6929368910 1.6160817670
