8
-1 0
  C    0.084222055   2.695247637   0.000000000
  H   -0.092113573   1.617664288   0.000000000
  H    0.653080794   2.973788964   0.887209552
  H   -0.865901658   3.230824893   0.000000000
  H    0.653080794   2.973788964  -0.887209552
  N   -0.579792039  -2.492082448   0.000000000
  O   -1.535222977  -1.674497214   0.000000000
  O    0.574484609  -2.001591504   0.000000000
