8
-1 1
C 2.4464982860 -0.2244212470 -0.2091538660
H 1.3684948950 -0.1445288840 -0.3231155530
C 3.6388479190 -0.3143582670 -0.1007124710
H 4.6906953390 -0.3929440950 0.0042458480
N -1.7465749320 0.1395654930 -0.0734499520
O -0.9475997810 -0.0172636450 -1.0434091170
O -1.2931611260 0.2093743990 1.0912470860
O -2.9726005260 0.2224251170 -0.2892646550
