26
-1 1
C -2.4454984560 -0.7153022570 -1.4848489420
H -1.8939238350 0.1737365960 -1.1991408920
C -1.9348458890 -1.9477987430 -1.0847602640
H -1.0149549050 -1.9477323980 -0.5103786380
C -2.6051351180 -3.1176260040 -1.4261639470
H -2.2093913860 -4.0764548570 -1.1158519620
C -3.7839568090 -3.0637441730 -2.1657907240
H -4.3031791540 -3.9764439210 -2.4298349670
C -4.2938227150 -1.8332276950 -2.5652699550
H -5.2100653210 -1.7877556760 -3.1403929580
C -3.6227514620 -0.6617289900 -2.2234606880
H -4.0209864380 0.2955896980 -2.5352348200
O 0.4990278420 -0.9472824620 0.3707603320
C 0.4989500680 0.3020167780 0.2886138150
O -0.3288564350 1.0488620710 -0.2810464380
C 1.6759572760 1.0165881620 0.9818975730
C 1.7796921990 2.4059625260 0.9561610810
C 2.8396472770 3.0537333090 1.5802795740
C 3.8162536950 2.3159972100 2.2427021280
C 3.7215970800 0.9278774190 2.2740577220
C 2.6588252000 0.2869049480 1.6477155070
H 1.0074453430 2.9531553190 0.4347246270
H 2.9071537720 4.1344231730 1.5519691280
H 4.6428521440 2.8178390290 2.7296349280
H 4.4782149820 0.3475251960 2.7878376340
H 2.5599968410 -0.7891276160 1.6560210430
