8
-1 1
C 2.4464982860 -0.2244212470 -0.2091538660
H 1.3684948950 -0.1445288840 -0.3231155530
C 3.6388479190 -0.3143582670 -0.1007124710
H 4.6906953390 -0.3929440950 0.0042458480
N -1.2833559970 0.1141124450 0.0706087610
O -0.4843808460 -0.0427166930 -0.8993504040
O -0.8299421910 0.1839213510 1.2353057990
O -2.5093815910 0.1969720690 -0.1452059420
