19
-1 1
C -1.1677967220 -0.1397472030 -0.1718373790
H -0.7922381910 0.8785936960 -0.1450828290
C -0.2478017350 -1.1660304270 0.0312475340
H 0.7857925610 -0.8818290160 0.2030674270
C -0.6728997240 -2.4901047720 0.0069961670
H 0.0408370800 -3.2891537670 0.1644701570
C -2.0128712270 -2.7963764040 -0.2191228130
H -2.3401849740 -3.8284846000 -0.2373966070
C -2.9312329500 -1.7719847470 -0.4219241100
H -3.9736852700 -2.0064059410 -0.5981640120
C -2.5056389980 -0.4458096940 -0.3976640770
H -3.2222136540 0.3505282500 -0.5559670230
C 2.8348574850 2.6117734970 0.2684101880
C 1.6928439880 1.5619080840 0.2214906260
O 2.0368515180 0.3634043380 0.3547442070
O 0.5421473730 2.0235576840 0.0309758050
H 3.7284831530 2.2053569840 0.7412992840
H 2.5061879730 3.5113887880 0.7898997450
H 3.0861288620 2.8997591260 -0.7555744530
