8
-1 1
C 0.0842220550 2.6952476370 0.0000000000
H -0.0921135730 1.6176642880 0.0000000000
H 0.6530807940 2.9737889640 0.8872095520
H -0.8659016580 3.2308248930 0.0000000000
H 0.6530807940 2.9737889640 -0.8872095520
N -0.0025482770 -1.1752178480 0.0000000000
O -0.9579792150 -0.3576326140 0.0000000000
O 1.1517283710 -0.6847269040 0.0000000000
