8
-1 1
C 0.0842220550 2.6952476370 0.0000000000
H -0.0921135730 1.6176642880 0.0000000000
H 0.6530807940 2.9737889640 0.8872095520
H -0.8659016580 3.2308248930 0.0000000000
H 0.6530807940 2.9737889640 -0.8872095520
N -0.1468592180 -1.5044339980 0.0000000000
O -1.1022901560 -0.6868487640 0.0000000000
O 1.0074174300 -1.0139430540 0.0000000000
