11
-1 1
C 2.4044346860 -0.2417185520 -0.7872545060
H 1.4004410980 -0.2636979260 -0.3353439380
C 3.5025846370 -0.2223354860 -1.2768424920
H 4.4685370310 -0.1998122890 -1.7129896380
C -3.1685240850 -0.3935081100 1.7555272280
C -1.9958793280 0.0238017170 0.8308918980
O -0.9256311410 -0.6195487300 1.0190044740
O -2.2115197620 0.9326840040 0.0079635150
H -2.8757002460 -0.2601649280 2.7989177920
H -3.3832453840 -1.4549471560 1.6162205680
H -4.0645091420 0.1907533840 1.5499407040
