26
-1 1
C -2.4454984560 -0.7153022570 -1.4848489420
H -1.8939238350 0.1737365960 -1.1991408920
C -1.9348458890 -1.9477987430 -1.0847602640
H -1.0149549050 -1.9477323980 -0.5103786380
C -2.6051351180 -3.1176260040 -1.4261639470
H -2.2093913860 -4.0764548570 -1.1158519620
C -3.7839568090 -3.0637441730 -2.1657907240
H -4.3031791540 -3.9764439210 -2.4298349670
C -4.2938227150 -1.8332276950 -2.5652699550
H -5.2100653210 -1.7877556760 -3.1403929580
C -3.6227514620 -0.6617289900 -2.2234606880
H -4.0209864380 0.2955896980 -2.5352348200
O 1.5252252200 -0.3221836560 0.9704155950
C 1.5251474460 0.9271155840 0.8882690780
O 0.6973409430 1.6739608770 0.3186088250
C 2.7021546540 1.6416869680 1.5815528360
C 2.8058895770 3.0310613320 1.5558163440
C 3.8658446550 3.6788321150 2.1799348370
C 4.8424510730 2.9410960160 2.8423573910
C 4.7477944580 1.5529762250 2.8737129850
C 3.6850225780 0.9120037540 2.2473707700
H 2.0336427210 3.5782541250 1.0343798900
H 3.9333511500 4.7595219790 2.1516243910
H 5.6690495220 3.4429378350 3.3292901910
H 5.5044123600 0.9726240020 3.3874928970
H 3.5861942190 -0.1640288100 2.2556763060
