9
-1 1
H 0.0473417900 0.8090827920 -0.7526521710
H -0.3721775460 2.5655752440 -0.3502225770
H 0.0945972180 3.2518341160 -2.6617732420
H 0.5174008390 1.5101077300 -3.0873502560
C -0.0523945210 1.8404824520 -1.0900131790
C 0.1971091730 2.2223069240 -2.3362418580
N -0.1062073540 -1.2944503120 1.3283671090
O 0.2516645990 -1.6567066770 0.1742459740
O -0.1678427010 -2.1888419120 2.1981080590
