12
-2 1
H 0.0730862400 2.6884251980 -0.2301346850
H 0.0513000700 4.3543105320 -1.1286053440
H -0.1802022780 3.0975725900 -3.2580564060
H -0.1456211600 1.5032210820 -2.2385938490
C 0.0112150630 3.2662297110 -1.1556682720
C -0.1126368630 2.5940893200 -2.2946275110
C 0.0371319760 -2.1239735460 1.2506688430
O 0.1366492650 -1.0564883530 1.9227618020
O -0.0793812380 -2.1966119900 -0.0071938610
C 0.0601653740 -3.4711973880 2.0440577430
O -1.0535652150 -3.9171448400 2.4336296130
O 1.1905766980 -3.9996434710 2.2283409750
