9
-1 1
C -2.1142734430 1.6009572370 -1.8112702430
H -1.4574721760 1.1399802090 -1.0745996960
H -1.5193389710 2.1583718180 -2.5341141360
H -2.8106314570 2.2800337690 -1.3190000420
H -2.6759571100 0.8280055340 -2.3349030390
N 0.3169340860 -0.2690292690 0.0732673390
O -0.5303889900 0.5535065280 0.5088646180
O 0.3938271440 -0.4910419820 -1.1605142960
O 1.0803549430 -0.8634826200 0.8698345040
