12
-2 1
H 0.0730862400 2.6884251980 -0.2301346850
H 0.0513000700 4.3543105320 -1.1286053440
H -0.1802022780 3.0975725900 -3.2580564060
H -0.1456211600 1.5032210820 -2.2385938490
C 0.0112150630 3.2662297110 -1.1556682720
C -0.1126368630 2.5940893200 -2.2946275110
C 0.0014365070 -0.0766878360 0.0449988620
O 0.1009537960 0.9907973570 0.7170918210
O -0.1150767070 -0.1493262800 -1.2128638420
C 0.0244699050 -1.4239116780 0.8383877620
O -1.0892606840 -1.8698591300 1.2279596320
O 1.1548812290 -1.9523577610 1.0226709940
