10
-2 1
C 3.2208188530 0.1693744300 -0.2306002820
H 2.0797444810 0.0960591100 -0.0334248810
C 4.4099741320 0.2460692410 -0.4390148710
H 5.4504340230 0.3147022980 -0.6338699020
C -0.1542975820 0.0371948670 -0.3698881140
O 0.8888145890 -0.0044162380 0.3737561610
O -0.1464485410 0.1845018610 -1.6115105030
C -1.5264282210 -0.1099964960 0.3582418230
O -2.0712701390 0.9567827620 0.7479625460
O -1.9718642190 -1.2816477410 0.4830234880
