11
-1 1
C 2.4044346860 -0.2417185520 -0.7872545060
H 1.4004410980 -0.2636979260 -0.3353439380
C 3.5025846370 -0.2223354860 -1.2768424920
H 4.4685370310 -0.1998122890 -1.7129896380
C -3.9438814980 -0.5121250440 2.2069766990
C -2.7712367410 -0.0948152180 1.2823413690
O -1.7009885540 -0.7381656640 1.4704539440
O -2.9868771750 0.8140670700 0.4594129860
H -3.6510576590 -0.3787818620 3.2503672630
H -4.1586027970 -1.5735640910 2.0676700380
H -4.8398665550 0.0721364490 2.0013901740
