9
-1 1
C -2.1142734430 1.6009572370 -1.8112702430
H -1.4574721760 1.1399802090 -1.0745996960
H -1.5193389710 2.1583718180 -2.5341141360
H -2.8106314570 2.2800337690 -1.3190000420
H -2.6759571100 0.8280055340 -2.3349030390
N 0.8384183790 -0.5989207140 0.9639660160
O -0.0089046970 0.2236150830 1.3995632950
O 0.9153114370 -0.8209334270 -0.2698156190
O 1.6018392360 -1.1933740650 1.7605331810
