12
-1 1
C -0.0263051990 -3.2410039820 -0.0026598730
H -0.2621385630 -2.1743069660 -0.0001938350
H 0.5584684910 -3.4881321470 0.8832983150
H 0.5578167710 -3.4840098840 -0.8901730060
H -0.9436723090 -3.8315629650 -0.0037048090
C -0.1758348960 1.8476983210 -0.0008796540
C 0.1782338370 0.3313521760 0.0002175370
O -0.8111615730 -0.4416621640 0.0023287510
O 1.3943915020 0.0402458560 -0.0012515080
H -0.7820243930 2.0792260890 -0.8795345990
H 0.7192329960 2.4695661580 -0.0013534230
H -0.7822920130 2.0806848760 0.8771914840
