19
-1 1
C -1.1677967220 -0.1397472030 -0.1718373790
H -0.7922381910 0.8785936960 -0.1450828290
C -0.2478017350 -1.1660304270 0.0312475340
H 0.7857925610 -0.8818290160 0.2030674270
C -0.6728997240 -2.4901047720 0.0069961670
H 0.0408370800 -3.2891537670 0.1644701570
C -2.0128712270 -2.7963764040 -0.2191228130
H -2.3401849740 -3.8284846000 -0.2373966070
C -2.9312329500 -1.7719847470 -0.4219241100
H -3.9736852700 -2.0064059410 -0.5981640120
C -2.5056389980 -0.4458096940 -0.3976640770
H -3.2222136540 0.3505282500 -0.5559670230
C 3.3192716280 3.0596057310 0.3298153610
C 2.1772581310 2.0097403180 0.2828957990
O 2.5212656610 0.8112365720 0.4161493800
O 1.0265615160 2.4713899180 0.0923809780
H 4.2128972960 2.6531892180 0.8027044570
H 2.9906021160 3.9592210220 0.8513049180
H 3.5705430050 3.3475913600 -0.6941692800
