26
-1 1
C -2.4454984560 -0.7153022570 -1.4848489420
H -1.8939238350 0.1737365960 -1.1991408920
C -1.9348458890 -1.9477987430 -1.0847602640
H -1.0149549050 -1.9477323980 -0.5103786380
C -2.6051351180 -3.1176260040 -1.4261639470
H -2.2093913860 -4.0764548570 -1.1158519620
C -3.7839568090 -3.0637441730 -2.1657907240
H -4.3031791540 -3.9764439210 -2.4298349670
C -4.2938227150 -1.8332276950 -2.5652699550
H -5.2100653210 -1.7877556760 -3.1403929580
C -3.6227514620 -0.6617289900 -2.2234606880
H -4.0209864380 0.2955896980 -2.5352348200
O 0.3279949450 -1.0514655970 0.2708177880
C 0.3279171710 0.1978336430 0.1886712710
O -0.4998893320 0.9446789360 -0.3809889820
C 1.5049243790 0.9124050270 0.8819550290
C 1.6086593020 2.3017793910 0.8562185370
C 2.6686143800 2.9495501740 1.4803370300
C 3.6452207980 2.2118140750 2.1427595840
C 3.5505641830 0.8236942840 2.1741151780
C 2.4877923030 0.1827218130 1.5477729630
H 0.8364124460 2.8489721840 0.3347820830
H 2.7361208750 4.0302400380 1.4520265840
H 4.4718192470 2.7136558940 2.6296923840
H 4.3071820850 0.2433420610 2.6878950900
H 2.3889639440 -0.8933107510 1.5560784990
