14
-1 1
C 0.3615955260 0.5324620270 0.0694953120
H 1.0004311860 1.4646971540 0.1372901730
C 0.9332213910 -0.7386183620 0.1207398640
H 2.0066174240 -0.8218258460 0.2425704000
C 0.1564775160 -1.8894297330 0.0164521660
H 0.6207779860 -2.8680232000 0.0596231290
C -1.2224855940 -1.7860677670 -0.1435498720
H -1.8317152080 -2.6776717660 -0.2248153620
C -1.8107826520 -0.5256097780 -0.1981754570
H -2.8840612940 -0.4382578450 -0.3227498380
C -1.0210724210 0.6162116040 -0.0924789210
H -1.4811441420 1.5961175500 -0.1379596740
O 2.0209786690 2.9520683290 0.2315929480
H 2.3085966270 3.2278103740 -0.6447423180
