8
-1 1
H 0.0020272040 -0.0215014610 0.3973734890
H 0.0931197140 1.8599694070 0.1877616700
H 0.0912264320 1.6840020010 -2.2524528580
H 0.0063025050 -0.1507430100 -2.1153774800
C 0.0489384570 0.8765705620 -0.2797449210
C 0.0494265790 0.8088068820 -1.6087076320
O -0.0612489740 -1.1399786440 1.4017516890
H -0.2034408200 -2.0170235030 1.0311380630
