9
-1 1
  H    0.047341790   0.809082792  -0.752652171
  H   -0.372177546   2.565575244  -0.350222577
  H    0.094597218   3.251834116  -2.661773242
  H    0.517400839   1.510107730  -3.087350256
  C   -0.052394521   1.840482452  -1.090013179
  C    0.197109173   2.222306924  -2.336241858
  N   -0.155244828  -0.702660839   1.105911554
  O    0.202627125  -1.064917204  -0.048209581
  O   -0.216880175  -1.597052439   1.975652504
