13
-1 1
H -0.6169135250 1.9605578200 -0.3545684900
H -0.9910477280 3.2636289290 -1.6462664990
H -0.3677185130 1.6258632120 -3.3908215240
H -0.0167055540 0.3833510940 -2.0341940780
C -0.6679065190 2.2570089260 -1.3980526740
C -0.3334113870 1.3780755390 -2.3340449920
C 0.3890973340 -1.5455746680 1.5665788290
C 0.1352479140 -0.4608978810 0.4819382370
O -0.2467350610 0.6578845700 0.8982343170
O 0.3215644380 -0.8321906580 -0.7011153620
H 0.4828725070 -1.1033487140 2.5582947610
H 1.2824792440 -2.1232171660 1.3249901140
H -0.4558422470 -2.2390192430 1.5729591210
