19
-1 1
C -1.1677967220 -0.1397472030 -0.1718373790
H -0.7922381910 0.8785936960 -0.1450828290
C -0.2478017350 -1.1660304270 0.0312475340
H 0.7857925610 -0.8818290160 0.2030674270
C -0.6728997240 -2.4901047720 0.0069961670
H 0.0408370800 -3.2891537670 0.1644701570
C -2.0128712270 -2.7963764040 -0.2191228130
H -2.3401849740 -3.8284846000 -0.2373966070
C -2.9312329500 -1.7719847470 -0.4219241100
H -3.9736852700 -2.0064059410 -0.5981640120
C -2.5056389980 -0.4458096940 -0.3976640770
H -3.2222136540 0.3505282500 -0.5559670230
C 2.9155931760 2.6864122030 0.2786443830
C 1.7735796790 1.6365467900 0.2317248210
O 2.1175872090 0.4380430440 0.3649784020
O 0.6228830640 2.0981963900 0.0412100000
H 3.8092188440 2.2799956900 0.7515334790
H 2.5869236640 3.5860274940 0.8001339400
H 3.1668645530 2.9743978320 -0.7453402580
