12
-1 1
C -0.0263051990 -3.2410039820 -0.0026598730
H -0.2621385630 -2.1743069660 -0.0001938350
H 0.5584684910 -3.4881321470 0.8832983150
H 0.5578167710 -3.4840098840 -0.8901730060
H -0.9436723090 -3.8315629650 -0.0037048090
C -0.2444627720 2.0642789210 -0.0005643300
C 0.1096059610 0.5479327760 0.0005328610
O -0.8797894490 -0.2250815640 0.0026440750
O 1.3257636260 0.2568264560 -0.0009361840
H -0.8506522690 2.2958066890 -0.8792192750
H 0.6506051200 2.6861467580 -0.0010380990
H -0.8509198890 2.2972654760 0.8775068080
