9
-1 1
  C   -2.114273443   1.600957237  -1.811270243
  H   -1.457472176   1.139980209  -1.074599696
  H   -1.519338971   2.158371818  -2.534114136
  H   -2.810631457   2.280033769  -1.319000042
  H   -2.675957110   0.828005534  -2.334903039
  N    1.707558866  -1.148739790   2.448463811
  O    0.860235790  -0.326203993   2.884061090
  O    1.784451924  -1.370752503   1.214682176
  O    2.470979723  -1.743193141   3.245030976
