9
-1 1
C -2.1142734430 1.6009572370 -1.8112702430
H -1.4574721760 1.1399802090 -1.0745996960
H -1.5193389710 2.1583718180 -2.5341141360
H -2.8106314570 2.2800337690 -1.3190000420
H -2.6759571100 0.8280055340 -2.3349030390
N 1.7075588660 -1.1487397900 2.4484638110
O 0.8602357900 -0.3262039930 2.8840610900
O 1.7844519240 -1.3707525030 1.2146821760
O 2.4709797230 -1.7431931410 3.2450309760
