8
-1 1
C 0.0842220550 2.6952476370 0.0000000000
H -0.0921135730 1.6176642880 0.0000000000
H 0.6530807940 2.9737889640 0.8872095520
H -0.8659016580 3.2308248930 0.0000000000
H 0.6530807940 2.9737889640 -0.8872095520
N -1.0608285070 -3.5894696160 0.0000000000
O -2.0162594450 -2.7718843820 0.0000000000
O 0.0934481410 -3.0989786720 0.0000000000
