26
-1 1
C -2.4454984560 -0.7153022570 -1.4848489420
H -1.8939238350 0.1737365960 -1.1991408920
C -1.9348458890 -1.9477987430 -1.0847602640
H -1.0149549050 -1.9477323980 -0.5103786380
C -2.6051351180 -3.1176260040 -1.4261639470
H -2.2093913860 -4.0764548570 -1.1158519620
C -3.7839568090 -3.0637441730 -2.1657907240
H -4.3031791540 -3.9764439210 -2.4298349670
C -4.2938227150 -1.8332276950 -2.5652699550
H -5.2100653210 -1.7877556760 -3.1403929580
C -3.6227514620 -0.6617289900 -2.2234606880
H -4.0209864380 0.2955896980 -2.5352348200
O 0.4135113930 -0.9993740290 0.3207890600
C 0.4134336190 0.2499252110 0.2386425430
O -0.4143728840 0.9967705040 -0.3310177100
C 1.5904408270 0.9644965950 0.9319263010
C 1.6941757500 2.3538709590 0.9061898090
C 2.7541308280 3.0016417420 1.5303083020
C 3.7307372460 2.2639056430 2.1927308560
C 3.6360806310 0.8757858520 2.2240864500
C 2.5733087510 0.2348133810 1.5977442350
H 0.9219288940 2.9010637520 0.3847533550
H 2.8216373230 4.0823316060 1.5019978560
H 4.5573356950 2.7657474620 2.6796636560
H 4.3926985330 0.2954336290 2.7378663620
H 2.4744803920 -0.8412191830 1.6060497710
