8
-1 1
C 2.4464982860 -0.2244212470 -0.2091538660
H 1.3684948950 -0.1445288840 -0.3231155530
C 3.6388479190 -0.3143582670 -0.1007124710
H 4.6906953390 -0.3929440950 0.0042458480
N -1.0054246360 0.0988406160 0.1570439890
O -0.2064494850 -0.0579885220 -0.8129151760
O -0.5520108300 0.1686495220 1.3217410270
O -2.2314502300 0.1817002400 -0.0587707140
