13
-1 1
H -0.6169135250 1.9605578200 -0.3545684900
H -0.9910477280 3.2636289290 -1.6462664990
H -0.3677185130 1.6258632120 -3.3908215240
H -0.0167055540 0.3833510940 -2.0341940780
C -0.6679065190 2.2570089260 -1.3980526740
C -0.3334113870 1.3780755390 -2.3340449920
C 0.4995597500 -1.9382187790 1.9697736130
C 0.2457103300 -0.8535419920 0.8851330210
O -0.1362726450 0.2652404590 1.3014291010
O 0.4320268540 -1.2248347690 -0.2979205780
H 0.5933349230 -1.4959928250 2.9614895450
H 1.3929416600 -2.5158612770 1.7281848980
H -0.3453798310 -2.6316633540 1.9761539050
