14
-1 1
C -0.2918818840 0.5255579230 0.2523282920
H 0.1957492890 1.4865959810 0.3669980150
C 0.4504972200 -0.5122517710 -0.3022566260
H 1.4740035520 -0.3040018900 -0.5889683340
C -0.1262546000 -1.7657254510 -0.4719430310
H 0.4520394600 -2.5727178980 -0.9035325340
C -1.4465633680 -1.9888025810 -0.0888078780
H -1.8941375360 -2.9655998050 -0.2216763630
C -2.1895882060 -0.9526075890 0.4655282460
H -3.2162239420 -1.1224671740 0.7644946910
C -1.6099099530 0.3024840210 0.6346932860
H -2.1898097170 1.1082395100 1.0664726950
C 2.6919876410 1.6185172120 -0.4419402470
N 1.9566478970 2.3935078800 0.0336316160
