7
-1 1
C -1.3190587170 1.4459862590 -1.7795013400
H -0.7740399980 0.8508295930 -1.0427712880
H -0.6160435080 2.0037782560 -2.3984975740
H -1.9816236650 2.1476270140 -1.2723245810
H -1.9138778770 0.7917350330 -2.4171908080
C 1.7720713040 -1.9430183710 2.3945848980
N 2.3562079430 -2.5850924040 3.1776232710
