7
-1 1
C -1.3190587170 1.4459862590 -1.7795013400
H -0.7740399980 0.8508295930 -1.0427712880
H -0.6160435080 2.0037782560 -2.3984975740
H -1.9816236650 2.1476270140 -1.2723245810
H -1.9138778770 0.7917350330 -2.4171908080
C 0.6263212180 -0.6857867870 0.8477746140
N 1.2104578570 -1.3278608200 1.6308129870
