7
-1 1
  C   -1.319058717   1.445986259  -1.779501340
  H   -0.774039998   0.850829593  -1.042771288
  H   -0.616043508   2.003778256  -2.398497574
  H   -1.981623665   2.147627014  -1.272324581
  H   -1.913877877   0.791735033  -2.417190808
  C    0.562668436  -0.615940588   0.761840710
  N    1.146805075  -1.258014621   1.544879083
