15
0 1
 S         0.691831       -1.304247        0.000000
 C        -0.486207       -1.387475        1.360941
 C        -0.486207       -1.387475       -1.360941
 H        -1.035340       -2.326136        1.332261
 H         0.080605       -1.338205        2.287319
 H        -1.175349       -0.546625        1.319382
 H        -1.035340       -2.326136       -1.332261
 H        -1.175349       -0.546625       -1.319382
 H         0.080605       -1.338205       -2.287319
 O        -0.456497        1.895298        0.000000
 C         0.286556        3.100348        0.000000
 H        -0.427545        3.919094        0.000000
 H         0.916873        3.199899        0.886188
 H         0.916873        3.199899       -0.886188
 H         0.176442        1.163681        0.000000
