15
0 1
 S         0.691831       -1.304247        0.000000
 C        -0.486207       -1.387475        1.360941
 C        -0.486207       -1.387475       -1.360941
 H        -1.035340       -2.326136        1.332261
 H         0.080605       -1.338205        2.287319
 H        -1.175349       -0.546625        1.319382
 H        -1.035340       -2.326136       -1.332261
 H        -1.175349       -0.546625       -1.319382
 H         0.080605       -1.338205       -2.287319
 O        -0.382870        1.542737        0.000000
 C         0.360183        2.747787        0.000000
 H        -0.353918        3.566533        0.000000
 H         0.990499        2.847338        0.886188
 H         0.990499        2.847338       -0.886188
 H         0.250069        0.811120        0.000000
