 6
0 1
 S        0.678036000     0.958194000     0.000000000
 C       -1.097422000     1.314396000     0.000000000
 H        0.557489000    -0.371244000     0.000000000
 H       -1.578466000     0.919018000     0.889111000
 H       -1.198372000     2.396287000     0.000000000
 H       -1.578466000     0.919018000    -0.889111000
