12
0 1
 C        -0.860950        3.275757        1.194085
 S         0.546033        3.319935        0.055188
 H        -1.294402        2.284947        1.086221
 H        -1.604873        4.020562        0.929886
 H        -0.540227        3.412353        2.222205
 H         0.951759        4.556207        0.345315
 C         0.896802       -1.790414        0.800079
 S        -0.430447       -1.911330       -0.426467
 H         0.530684       -2.284804        1.695862
 H         1.120799       -0.753008        1.029395
 H         1.792823       -2.300782        0.461195
 H         0.177021       -1.201173       -1.377499
