 12
0 1
 C        0.604208000    -1.572965000    -1.207526000
 C       -0.748348000    -1.235123000    -1.207375000
 C        1.280162000    -1.743444000     0.000000000
 H        1.129567000    -1.699983000    -2.144045000
 C       -1.424958000    -1.068149000     0.000000000
 H       -1.272163000    -1.103122000    -2.144286000
 C        0.604208000    -1.572965000     1.207526000
 H        2.329626000    -2.004217000     0.000000000
 C       -0.748348000    -1.235123000     1.207375000
 H       -2.475144000    -0.809355000     0.000000000
 H        1.129567000    -1.699983000     2.144045000
 H       -1.272163000    -1.103122000     2.144286000
