12
0 1
 C         1.152285        1.504542       -0.486178
 S        -0.483922        1.867145        0.206910
 H         1.071252        1.676116       -1.556110
 H         1.422769        0.468990       -0.302374
 H         1.898584        2.178873       -0.079115
 H        -0.194151        1.535812        1.465591
 C        -0.364471       -3.473582       -0.192896
 O         0.697971       -3.005855        0.180012
 N        -1.465706       -2.753284       -0.504440
 H        -2.313377       -3.217348       -0.769291
 H        -1.456788       -1.747678       -0.394109
 H        -0.519726       -4.555759       -0.318530
