12
0 1
 C         1.152285        1.504542       -0.486178
 S        -0.483922        1.867145        0.206910
 H         1.071252        1.676116       -1.556110
 H         1.422769        0.468990       -0.302374
 H         1.898584        2.178873       -0.079115
 H        -0.194151        1.535812        1.465591
 C        -0.040183       -2.268641        0.007444
 O         1.022259       -1.800914        0.380352
 N        -1.141418       -1.548343       -0.304100
 H        -1.989089       -2.012407       -0.568951
 H        -1.132499       -0.542737       -0.193769
 H        -0.195437       -3.350818       -0.118190
