12
0 1
 C         1.152285        1.504542       -0.486178
 S        -0.483922        1.867145        0.206910
 H         1.071252        1.676116       -1.556110
 H         1.422769        0.468990       -0.302374
 H         1.898584        2.178873       -0.079115
 H        -0.194151        1.535812        1.465591
 C        -0.072612       -2.389136       -0.012590
 O         0.989830       -1.921408        0.360318
 N        -1.173846       -1.668838       -0.324134
 H        -2.021518       -2.132901       -0.588985
 H        -1.164928       -0.663231       -0.213803
 H        -0.227866       -3.471312       -0.138224
