6
0 1
 O         0.046884       -2.293802        0.000000
 H        -0.805511       -2.732678        0.000000
 H        -0.179936       -1.358345        0.000000
 S        -0.079242        0.997045        0.000000
 H         0.838431        0.888975       -0.960960
 H         0.838431        0.888975        0.960960
