6
0 1
 O        -0.054524        1.581007        0.000000
 H         0.853478        1.886707        0.000000
 H         0.029467        0.619943        0.000000
 O         0.025883       -1.390422        0.000000
 H        -0.419470       -1.778763       -0.756177
 H        -0.419470       -1.778763        0.756177
