8
0 1
 S         0.080299        1.333240        0.025922
 H        -0.629381        2.461103        0.007509
 H        -1.015174        0.578039       -0.041582
 C         0.137492       -2.739535        0.005305
 H        -0.945714       -2.733733       -0.071996
 H         0.489551       -3.766012        0.027398
 H         0.566077       -2.229032       -0.851613
 H         0.439852       -2.234289        0.917402
