 6
# merged:  Fragment[ 4 5 6] of Water #1, B3LYP-D*/TZP geometry Fragment[ 7 8 9] of Water #1, B3LYP-D*/TZP geometry
 O        4.422945000    -0.026001000    -0.007200000
 H        4.446575000    -0.955128000     0.320950000
 H        4.445532000    -0.084110000    -0.991960000
 O        2.201771000     1.306708000     0.969980000
 H        2.989729000     0.844404000     0.598680000
 H        2.274831000     1.268852000     1.952940000
