 6
# merged:  Fragment[ 1 2 3] of 1a. Water trimer, 3B-69 Test set Fragment[ 7 8 9] of 1a. Water trimer, 3B-69 Test set
 O       -0.084889000     0.056804000     0.055205000
 H        0.710375000     0.517729000     0.413971000
 H       -0.890958000     0.498588000     0.414274000
 O        2.201771000     1.306708000     0.969979000
 H        2.989729000     0.844404000     0.598684000
 H        2.274831000     1.268852000     1.952936000
