 6
# merged:  Fragment[ 4 5 6] of 1a. Water trimer, 3B-69 Test set Fragment[ 7 8 9] of 1a. Water trimer, 3B-69 Test set
 O        4.422945000    -0.026001000    -0.007196000
 H        4.446575000    -0.955128000     0.320949000
 H        4.445532000    -0.084110000    -0.991962000
 O        2.201771000     1.306708000     0.969979000
 H        2.989729000     0.844404000     0.598684000
 H        2.274831000     1.268852000     1.952936000
