 6
# merged:  Fragment[ 7 8 9] of Water #2, B3LYP-D*/TZP geometry            Fragment[ 1 2 3] of Water #2, B3LYP-D*/TZP geometry           
 O       -0.002242000     0.021748000    -2.688650000
 H       -0.085097000     0.077817000    -1.706600000
 H       -0.801156000     0.454510000    -3.074410000
 O       -0.084889000     0.056804000     0.055200000
 H        0.710375000     0.517729000     0.413970000
 H       -0.890958000     0.498588000     0.414270000
