 6
# merged:  Fragment[ 4 5 6] of Water #2, B3LYP-D*/TZP geometry            Fragment[ 7 8 9] of Water #2, B3LYP-D*/TZP geometry           
 O       -0.017366000    -2.585019000     0.919270000
 H       -0.039968000    -1.654902000     0.595340000
 H        0.035574000    -2.525985000     1.902570000
 O       -0.002242000     0.021748000    -2.688650000
 H       -0.085097000     0.077817000    -1.706600000
 H       -0.801156000     0.454510000    -3.074410000
