 6
# merged:  Fragment[ 4 5 6] of 1c. Water trimer, 3B-69 Test set            Fragment[ 7 8 9] of 1c. Water trimer, 3B-69 Test set           
 O       -0.014443000    -1.614719000    -0.009938000
 H       -0.027039000    -2.101017000     0.820609000
 H        0.810370000    -1.091722000    -0.026818000
 O        1.602083000     0.679871000     0.031168000
 H        2.064562000     1.065746000    -0.719443000
 H        0.719298000     1.097655000     0.053930000
