12
Formaldehyde #2, B3LYP-D*/TZP geometry            
O   9.239955  15.408112    2.83848
C   8.895380  15.312746    1.68084
H   8.218033  14.511974    1.34976
H   9.244063  16.011860    0.90970
O   9.239955  15.408112    7.31248
C   8.895380  15.312746    6.15484
H   8.218033  14.511974    5.82376
H   9.244063  16.011860    5.38370
O  11.037562  13.610505    5.07548
C  10.942196  13.265930    3.91784
H  10.141424  12.588583    3.58676
H  11.641310  13.614613    3.14670
