 8
# merged:  Fragment[ 1 2 3 4] of 2b. Formaldehyde trimer, 3B-69 Test set             Fragment[ 9 10 11 12] of 2b. Formaldehyde trimer, 3B-69 Test set            
 O        9.239955000    15.408112000     2.838485000
 C        8.895380000    15.312746000     1.680837000
 H        8.218033000    14.511974000     1.349761000
 H        9.244063000    16.011860000     0.909698000
 O       11.037562000    13.610505000     5.075485000
 C       10.942196000    13.265930000     3.917837000
 H       10.141424000    12.588583000     3.586761000
 H       11.641310000    13.614613000     3.146698000
