12
Formaldehyde #3, B3LYP-D*/TZP geometry            
O  10.815188   9.239955    1.63552
C  10.910554   8.895380    2.79316
H  11.711326   8.218033    3.12424
H  10.211440   9.244063    3.56430
O  10.815188   9.239955    6.10952
C  10.910554   8.895380    7.26716
H  11.711326   8.218033    7.59824
H  10.211440   9.244063    8.03830
O   9.239955   6.667012    7.31248
C   8.895380   6.571646    6.15484
H   8.218033   5.770874    5.82376
H   9.244063   7.270760    5.38370
