 8
# merged:  Fragment[ 1 2 3 4] of 2c. Formaldehyde trimer, 3B-69 Test set             Fragment[ 5 6 7 8] of 2c. Formaldehyde trimer, 3B-69 Test set            
 O       10.815188000     9.239955000     1.635515000
 C       10.910554000     8.895380000     2.793163000
 H       11.711326000     8.218033000     3.124239000
 H       10.211440000     9.244063000     3.564302000
 O       10.815188000     9.239955000     6.109515000
 C       10.910554000     8.895380000     7.267163000
 H       11.711326000     8.218033000     7.598239000
 H       10.211440000     9.244063000     8.038302000
