 12
# merged:  Fragment[ 7 8 9 10 11 12] of 3a. Methanol/Ethyne trimer, 3B-69 Test set Fragment[ 13 14 15 16 17 18] of 3a. Methanol/Ethyne trimer, 3B-69 Test set
 O        0.929023000    13.503692000    13.237802000
 H        1.783226000    13.006413000    13.256760000
 C        1.143396000    14.758774000    12.578499000
 H        1.771311000    15.406502000    13.194753000
 H        0.173881000    15.235501000    12.446586000
 H        1.611902000    14.630706000    11.600735000
 O        5.494023000    13.503692000    13.237802000
 H        6.348226000    13.006413000    13.256760000
 C        5.708396000    14.758774000    12.578499000
 H        6.336311000    15.406502000    13.194753000
 H        4.738881000    15.235501000    12.446586000
 H        6.176902000    14.630706000    11.600735000
