 12
# merged:  Fragment[ 1 2 3 4 5 6] of 3a. Methanol/Ethyne trimer, 3B-69 Test set Fragment[ 7 8 9 10 11 12] of 3a. Methanol/Ethyne trimer, 3B-69 Test set
 O        3.211523000    12.095308000    13.092198000
 H        4.065726000    12.592587000    13.073240000
 C        3.425896000    10.840226000    13.751501000
 H        4.053811000    10.192498000    13.135247000
 H        2.456381000    10.363499000    13.883414000
 H        3.894402000    10.968294000    14.729265000
 O        0.929023000    13.503692000    13.237802000
 H        1.783226000    13.006413000    13.256760000
 C        1.143396000    14.758774000    12.578499000
 H        1.771311000    15.406502000    13.194753000
 H        0.173881000    15.235501000    12.446586000
 H        1.611902000    14.630706000    11.600735000
