 6
# Fragment[ 1 2 3 4 5 6] of 3b. Methanol/Ethyne trimer, 3B-69 Test set
 O        3.211523000    12.095308000    13.092198000
 H        4.065726000    12.592587000    13.073240000
 C        3.425896000    10.840226000    13.751501000
 H        4.053811000    10.192498000    13.135247000
 H        2.456381000    10.363499000    13.883414000
 H        3.894402000    10.968294000    14.729265000
