 4
# Fragment[ 13 14 15 16] of Methanol/Ethyne #2, B3LYP-D*/TZP geometry                   
 C        5.344291000    11.231890000    17.349890000
 H        4.693231000    10.604130000    17.922700000
 C        6.078982000    11.950857000    16.730610000
 H        6.719680000    12.602095000    16.182020000
