 6
# Fragment[ 1 2 3 4 5 6] of Methanol/Ethyne #3, B3LYP-D*/TZP geometry                   
 O        3.211523000     4.781308000    13.092200000
 H        4.065726000     5.278587000    13.073240000
 C        3.425896000     3.526226000    13.751500000
 H        4.053811000     2.878498000    13.135250000
 H        2.456381000     3.049499000    13.883410000
 H        3.894402000     3.654294000    14.729260000
