 12
# merged:  Fragment[ 1 2 4 5 6 3] of Acetonitrile #1, B3LYP-D*/TZP geometry      Fragment[ 7 8 10 11 12 9] of Acetonitrile #1, B3LYP-D*/TZP geometry     
 C        4.104605000    12.030286000     1.944720000
 C        4.835020000    11.170537000     2.859350000
 H        3.478601000    11.425336000     1.287300000
 H        4.800705000    12.617622000     1.345300000
 H        3.474547000    12.709501000     2.518870000
 N        5.408601000    10.492976000     3.593700000
 C        2.674852000    12.779714000     5.904180000
 C        1.944437000    13.639463000     4.989550000
 H        3.300856000    13.384664000     6.561600000
 H        1.978752000    12.192378000     6.503600000
 H        3.304911000    12.100499000     5.330030000
 N        1.370856000    14.317024000     4.255200000
