 6
# Fragment[ 13 14 16 17 18 15] of 4a. Acetonitrile trimer, 3B-69 Test set     
 C        6.784852000    12.779714000     5.904178000
 C        6.054437000    13.639463000     4.989546000
 H        7.410856000    13.384664000     6.561602000
 H        6.088752000    12.192378000     6.503599000
 H        7.414911000    12.100499000     5.330031000
 N        5.480856000    14.317024000     4.255203000
