 6
# Fragment[ 1 2 4 5 6 3] of 4a. Acetonitrile trimer, 3B-69 Test set     
 C        4.104605000    12.030286000     1.944722000
 C        4.835020000    11.170537000     2.859354000
 H        3.478601000    11.425336000     1.287298000
 H        4.800705000    12.617622000     1.345302000
 H        3.474547000    12.709501000     2.518869000
 N        5.408601000    10.492976000     3.593698000
