 6
# Fragment[ 7 8 10 11 12 9] of 4a. Acetonitrile trimer, 3B-69 Test set     
 C        2.674852000    12.779714000     5.904178000
 C        1.944437000    13.639463000     4.989546000
 H        3.300856000    13.384664000     6.561602000
 H        1.978752000    12.192378000     6.503599000
 H        3.304911000    12.100499000     5.330031000
 N        1.370856000    14.317024000     4.255203000
