18
Acetonitrile #2, B3LYP-D*/TZP geometry       
C   6.774062   3.760286    9.79362
C   7.504477   2.900537   10.70825
N   8.078059   2.222976   11.44260
H   6.148058   3.155336    9.13620
H   7.470162   4.347622    9.19420
H   6.144004   4.439501   10.36777
C   3.384334   0.374714    5.86917
C   4.114749   1.234463    6.78381
N   4.688330   1.912024    7.51815
H   2.758330   0.979664    5.21175
H   4.080434  -0.212622    5.26975
H   2.754275  -0.304501    6.44332
C   7.494334   0.374714    5.86917
C   8.224749   1.234463    6.78381
N   8.798330   1.912024    7.51815
H   6.868330   0.979664    5.21175
H   8.190434  -0.212622    5.26975
H   6.864275  -0.304501    6.44332
