 12
# merged:  Fragment[ 7 8 10 11 12 9] of Acetonitrile #2, B3LYP-D*/TZP geometry        Fragment[ 13 14 16 17 18 15] of Acetonitrile #2, B3LYP-D*/TZP geometry       
 C        3.384334000     0.374714000     5.869170000
 C        4.114749000     1.234463000     6.783810000
 H        2.758330000     0.979664000     5.211750000
 H        4.080434000    -0.212622000     5.269750000
 H        2.754275000    -0.304501000     6.443320000
 N        4.688330000     1.912024000     7.518150000
 C        7.494334000     0.374714000     5.869170000
 C        8.224749000     1.234463000     6.783810000
 H        6.868330000     0.979664000     5.211750000
 H        8.190434000    -0.212622000     5.269750000
 H        6.864275000    -0.304501000     6.443320000
 N        8.798330000     1.912024000     7.518150000
