 12
# merged:  Fragment[ 1 2 4 5 6 3] of 4b. Acetonitrile trimer, 3B-69 Test set        Fragment[ 13 14 16 17 18 15] of 4b. Acetonitrile trimer, 3B-69 Test set       
 C        6.774062000     3.760286000     9.793622000
 C        7.504477000     2.900537000    10.708255000
 H        6.148058000     3.155336000     9.136198000
 H        7.470162000     4.347622000     9.194202000
 H        6.144004000     4.439501000    10.367769000
 N        8.078059000     2.222976000    11.442598000
 C        7.494334000     0.374714000     5.869172000
 C        8.224749000     1.234463000     6.783805000
 H        6.868330000     0.979664000     5.211748000
 H        8.190434000    -0.212622000     5.269752000
 H        6.864275000    -0.304501000     6.443319000
 N        8.798330000     1.912024000     7.518148000
