 12
# merged:  Fragment[ 1 3 2 4 5 6] of 4c. Acetonitrile trimer, 3B-69 Test set        Fragment[ 7 9 8 10 11 12] of 4c. Acetonitrile trimer, 3B-69 Test set       
 N        0.000000000     7.615376000     7.171412000
 C        0.000000000     6.749023000     7.931167000
 C        0.000000000     5.649997000     8.879421000
 H        0.000000000     4.702934000     8.339793000
 H        0.889258000     5.705299000     9.506911000
 H       -0.889258000     5.705299000     9.506911000
 N        0.000000000     2.948624000     3.227912000
 C        0.000000000     3.814977000     3.987667000
 C        0.000000000     4.914003000     4.935921000
 H        0.000000000     5.861066000     4.396293000
 H       -0.889258000     4.858701000     5.563411000
 H        0.889258000     4.858701000     5.563411000
