 6
# Fragment[ 1 3 2 4 5 6] of Acetonitrile #3, B3LYP-D*/TZP geometry       
 N        0.000000000     7.615376000     7.171410000
 C        0.000000000     6.749023000     7.931170000
 C        0.000000000     5.649997000     8.879420000
 H        0.000000000     4.702934000     8.339790000
 H        0.889258000     5.705299000     9.506910000
 H       -0.889258000     5.705299000     9.506910000
