 6
# Fragment[ 1 3 2 4 5 6] of 4c. Acetonitrile trimer, 3B-69 Test set       
 N        0.000000000     7.615376000     7.171412000
 C        0.000000000     6.749023000     7.931167000
 C        0.000000000     5.649997000     8.879421000
 H        0.000000000     4.702934000     8.339793000
 H        0.889258000     5.705299000     9.506911000
 H       -0.889258000     5.705299000     9.506911000
