 7
# Fragment[ 1 2 5 6 7 3 4] of Nitromethane #1, B3LYP-D*/TZP geometry       
 C        3.283816000     2.740850000     5.334995000
 N        4.461122000     3.656441000     5.327849000
 H        3.069727000     2.501474000     6.368425000
 H        2.456394000     3.296753000     4.898075000
 H        3.519371000     1.872659000     4.734231000
 O        5.252561000     3.583967000     4.392504000
 O        4.566896000     4.457147000     6.243883000
