 7
# Fragment[ 8 9 12 13 14 10 11] of 5c. Nitromethane trimer, 3B-69 Test set       
 C        4.493684000     3.496150000     9.588495000
 N        3.316378000     2.580559000     9.581349000
 H        4.707773000     3.735526000    10.621925000
 H        5.321106000     2.940247000     9.151575000
 H        4.258129000     4.364341000     8.987731000
 O        2.524939000     2.653033000     8.646004000
 O        3.210604000     1.779853000    10.497383000
