 7
# Fragment[ 1 2 5 6 7 3 4] of Nitromethane #1, B3LYP-D*/TZP geometry       
 C        0.691316000     6.614650000    11.679005000
 N        1.868622000     5.699059000    11.686151000
 H        0.477227000     6.854026000    10.645575000
 H       -0.136106000     6.058747000    12.115925000
 H        0.926871000     7.482841000    12.279769000
 O        2.660061000     5.771533000    12.621496000
 O        1.974396000     4.898353000    10.770117000
