 8
# Fragment[ 1 2 5 3 4 6 7 8] of 6b. Acetic acid trimer, 3B-69 Test set     
 O        1.069844000    17.887053000     8.034205000
 C        0.268685000    17.401890000     8.967150000
 H        1.319178000    17.191358000     7.354982000
 O       -0.114510000    16.236406000     8.947382000
 C       -0.138072000    18.413124000     9.992293000
 H       -0.928157000    19.031693000     9.562343000
 H        0.693086000    19.071689000    10.232330000
 H       -0.525179000    17.924444000    10.880182000
