 16
# merged:  Fragment[ 1 2 5 3 4 6 7 8] of 6b. Acetic acid trimer, 3B-69 Test set      Fragment[ 9 10 13 11 12 14 15 16] of 6b. Acetic acid trimer, 3B-69 Test set     
 O        1.069844000    17.887053000     8.034205000
 C        0.268685000    17.401890000     8.967150000
 H        1.319178000    17.191358000     7.354982000
 O       -0.114510000    16.236406000     8.947382000
 C       -0.138072000    18.413124000     9.992293000
 H       -0.928157000    19.031693000     9.562343000
 H        0.693086000    19.071689000    10.232330000
 H       -0.525179000    17.924444000    10.880182000
 O        5.327155000    17.887053000     2.402174000
 C        4.525997000    17.401890000     3.335120000
 H        5.576489000    17.191358000     1.722951000
 O        4.142801000    16.236406000     3.315351000
 C        4.119240000    18.413124000     4.360262000
 H        3.329155000    19.031693000     3.930313000
 H        4.950397000    19.071689000     4.600299000
 H        3.732132000    17.924444000     5.248152000
