 16
# merged:  Fragment[ 17 18 21 19 20 22 23 24] of Acetic acid #2, B3LYP-D*/TZP geometry      Fragment[ 1 2 5 3 4 6 7 8] of Acetic acid #2, B3LYP-D*/TZP geometry     
 O        3.198500000    14.682947000     5.218190000
 C        2.397341000    15.168110000     6.151140000
 H        3.447834000    15.378642000     4.538970000
 O        2.014145000    16.333594000     6.131370000
 C        1.990584000    14.156876000     7.176280000
 H        1.200499000    13.538307000     6.746330000
 H        2.821742000    13.498311000     7.416310000
 H        1.603476000    14.645556000     8.064170000
 O        1.069844000    17.887053000     8.034210000
 C        0.268685000    17.401890000     8.967150000
 H        1.319178000    17.191358000     7.354980000
 O       -0.114510000    16.236406000     8.947380000
 C       -0.138072000    18.413124000     9.992290000
 H       -0.928157000    19.031693000     9.562340000
 H        0.693086000    19.071689000    10.232330000
 H       -0.525179000    17.924444000    10.880180000
