 8
# Fragment[ 17 18 21 19 20 22 23 24] of 6c. Acetic acid trimer, 3B-69 Test set     
 O        7.143200000    14.682947000     5.218189000
 C        6.342041000    15.168110000     6.151135000
 H        7.392534000    15.378642000     4.538966000
 O        5.958845000    16.333594000     6.131367000
 C        5.935284000    14.156876000     7.176277000
 H        5.145199000    13.538307000     6.746328000
 H        6.766442000    13.498311000     7.416314000
 H        5.548176000    14.645556000     8.064167000
