 16
# merged:  Fragment[ 17 19 20 21 18 22 23 24] of Oxalic acid #1, B3LYP-D*/TZP geometry          Fragment[ 1 3 4 5 2 6 7 8] of Oxalic acid #1, B3LYP-D*/TZP geometry         
 C       -4.321482000     3.017605000     7.334640000
 O       -4.953265000     3.637150000     8.170740000
 O       -4.822899000     2.333279000     6.343930000
 C       -2.783954000     2.997395000     7.344040000
 H       -5.822069000     2.371173000     6.381610000
 O       -2.152170000     2.377850000     6.507940000
 O       -2.282537000     3.681721000     8.334750000
 H       -1.283366000     3.643827000     8.297070000
 C       -1.599714000     6.025105000     4.897590000
 O       -0.967931000     6.644650000     4.061490000
 O       -1.098297000     5.340779000     5.888300000
 C       -3.137243000     6.004895000     4.888200000
 H       -0.099127000     5.378673000     5.850630000
 O       -3.769026000     5.385350000     5.724290000
 O       -3.638660000     6.689221000     3.897480000
 H       -4.637830000     6.651327000     3.935160000
