24
Oxalic acid #1, B3LYP-D*/TZP geometry         
C  -1.599714   6.025105    4.89759
H  -0.099127   5.378673    5.85063
O  -0.967931   6.644650    4.06149
O  -1.098297   5.340779    5.88830
C  -3.137243   6.004895    4.88820
O  -3.769026   5.385350    5.72429
O  -3.638660   6.689221    3.89748
H  -4.637830   6.651327    3.93516
C  -1.953003   3.017605    2.44175
H  -3.453591   2.371173    1.48871
O  -2.584787   3.637150    3.27785
O  -2.454420   2.333279    1.45104
C  -0.415475   2.997395    2.45114
O   0.216308   2.377850    1.61505
O   0.085942   3.681721    3.44186
H   1.085112   3.643827    3.40418
C  -4.321482   3.017605    7.33464
H  -5.822069   2.371173    6.38161
O  -4.953265   3.637150    8.17074
O  -4.822899   2.333279    6.34393
C  -2.783954   2.997395    7.34404
O  -2.152170   2.377850    6.50794
O  -2.282537   3.681721    8.33475
H  -1.283366   3.643827    8.29707
