 8
# Fragment[ 1 3 4 5 2 6 7 8] of Oxalic acid #1, B3LYP-D*/TZP geometry         
 C       -1.599714000     6.025105000     4.897590000
 O       -0.967931000     6.644650000     4.061490000
 O       -1.098297000     5.340779000     5.888300000
 C       -3.137243000     6.004895000     4.888200000
 H       -0.099127000     5.378673000     5.850630000
 O       -3.769026000     5.385350000     5.724290000
 O       -3.638660000     6.689221000     3.897480000
 H       -4.637830000     6.651327000     3.935160000
