 8
# Fragment[ 9 11 12 13 10 14 15 16] of 7a. Oxalic acid trimer, 3B-69 Test set         
 C       -1.953003000     3.017605000     2.441750000
 O       -2.584787000     3.637150000     3.277847000
 O       -2.454420000     2.333279000     1.451036000
 C       -0.415475000     2.997395000     2.451144000
 H       -3.453591000     2.371173000     1.488712000
 O        0.216308000     2.377850000     1.615046000
 O        0.085942000     3.681721000     3.441857000
 H        1.085112000     3.643827000     3.404182000
