 16
# merged:  Fragment[ 17 19 18 23 20 21 22 24] of Oxalic acid #2, B3LYP-D*/TZP geometry          Fragment[ 1 3 2 7 4 5 6 8] of Oxalic acid #2, B3LYP-D*/TZP geometry         
 O        1.061967000     1.653302000     7.912630000
 C        0.393630000     2.538821000     7.422250000
 O        0.219281000     2.774354000     6.150000000
 C       -0.393630000     3.555179000     8.282550000
 H        0.688540000     2.132291000     5.557540000
 O       -1.061967000     4.440698000     7.792170000
 O       -0.219281000     3.319646000     9.554800000
 H       -0.688540000     3.961709000    10.147260000
 O       -1.061967000    -1.393698000     3.865970000
 C       -0.393630000    -0.508179000     4.356350000
 O       -0.219281000    -0.272646000     5.628600000
 C        0.393630000     0.508179000     3.496050000
 H       -0.688540000    -0.914709000     6.221060000
 O        1.061967000     1.393698000     3.986430000
 O        0.219281000     0.272646000     2.223800000
 H        0.688540000     0.914709000     1.631340000
