 16
# merged:  Fragment[ 1 3 2 7 4 5 6 8] of 7b. Oxalic acid trimer, 3B-69 Test set          Fragment[ 9 11 10 15 12 13 14 16] of 7b. Oxalic acid trimer, 3B-69 Test set         
 O       -1.061967000    -1.393698000     3.865972000
 C       -0.393630000    -0.508179000     4.356354000
 O       -0.219281000    -0.272646000     5.628600000
 C        0.393630000     0.508179000     3.496046000
 H       -0.688540000    -0.914709000     6.221064000
 O        1.061967000     1.393698000     3.986428000
 O        0.219281000     0.272646000     2.223800000
 H        0.688540000     0.914709000     1.631336000
 O       -1.061967000    -1.393698000    11.718372000
 C       -0.393630000    -0.508179000    12.208754000
 O       -0.219281000    -0.272646000    13.481000000
 C        0.393630000     0.508179000    11.348446000
 H       -0.688540000    -0.914709000    14.073464000
 O        1.061967000     1.393698000    11.838828000
 O        0.219281000     0.272646000    10.076200000
 H        0.688540000     0.914709000     9.483736000
