 8
# Fragment[ 9 10 12 14 13 15 11 16] of 8a. Vinylene carbonate trimer, 3B-69 Test set
 C        1.292572000    10.034211000     3.176630000
 C        0.673909000     9.438030000     2.170986000
 H        1.554241000    11.050703000     3.398771000
 O        1.628895000     9.065510000     4.123095000
 H        0.248372000     9.772782000     1.245902000
 O        0.593219000     8.073493000     2.454765000
 C        1.206368000     7.871144000     3.645984000
 O        1.355824000     6.807704000     4.177968000
