 8
# Fragment[ 17 18 20 22 21 23 19 24] of XYZ
 C       10.244426000    11.065790000     6.284242000
 C       10.863089000    11.661970000     7.289886000
 H        9.982757000    10.049297000     6.062101000
 O        9.908104000    12.034491000     5.337777000
 H       11.288627000    11.327218000     8.214970000
 O       10.943780000    13.026507000     7.006107000
 C       10.330630000    13.228856000     5.814889000
 O       10.181175000    14.292296000     5.282904000
