 8
# Fragment[ 1 2 4 6 5 7 3 8] of XYZ
 C        6.614426000    15.309211000     6.284242000
 C        7.233089000    14.713030000     7.289886000
 H        6.352757000    16.325703000     6.062101000
 O        6.278104000    14.340510000     5.337777000
 H        7.658627000    15.047782000     8.214970000
 O        7.313780000    13.348493000     7.006107000
 C        6.700630000    13.146144000     5.814889000
 O        6.551175000    12.082704000     5.282904000
