 16
# merged:  Fragment[ 1 2 4 6 5 7 3 8] of 8c. Vinylene carbonate trimer, 3B-69 Test set    Fragment[ 9 10 12 14 13 15 11 16] of 8c. Vinylene carbonate trimer, 3B-69 Test set   
 C        0.845927000    15.309211000     1.553806000
 C        1.464590000    14.713030000     2.559450000
 H        0.584258000    16.325703000     1.331665000
 O        0.509604000    14.340510000     0.607341000
 H        1.890128000    15.047782000     3.484534000
 O        1.545281000    13.348493000     2.275671000
 C        0.932131000    13.146144000     1.084452000
 O        0.782676000    12.082704000     0.552468000
 C        1.292572000    10.034211000     3.176630000
 C        0.673909000     9.438030000     2.170986000
 H        1.554241000    11.050703000     3.398771000
 O        1.628895000     9.065510000     4.123095000
 H        0.248372000     9.772782000     1.245902000
 O        0.593219000     8.073493000     2.454765000
 C        1.206368000     7.871144000     3.645984000
 O        1.355824000     6.807704000     4.177968000
