 9
# Fragment[ 1 2 7 8 9 3 4 5 6] of Acetamide #1, B3LYP-D*/TZP geometry
 C       -1.004918000    11.251778000    13.363890000
 C       -1.828837000     9.986003000    13.391440000
 H       -1.234988000    11.820456000    14.267100000
 H        0.064930000    11.054024000    13.355770000
 H       -1.271188000    11.855156000    12.501120000
 O       -2.955857000     9.947587000    12.854100000
 N       -1.315604000     8.944986000    14.045830000
 H       -1.888595000     8.125309000    14.256360000
 H       -0.387165000     9.011600000    14.468610000
