 9
# Fragment[ 19 20 25 26 27 21 22 23 24] of 9a. Acetamide trimer, 3B-69 Test set
 C        3.495866000    10.091100000    15.512557000
 C        1.987714000    10.010453000    15.540103000
 H        3.873321000     9.607515000    16.415770000
 H        3.859531000    11.116492000    15.504435000
 H        3.885273000     9.558814000    14.649781000
 O        1.390934000     9.053632000    15.002764000
 N        1.342783000    10.975434000    16.194501000
 H        0.346426000    10.889047000    16.405027000
 H        1.864692000    11.746178000    16.617272000
