 9
# Fragment[ 10 11 16 17 18 12 13 14 15] of 9a. Acetamide trimer, 3B-69 Test set
 C       -1.245216000     8.514214000    17.661224000
 C       -1.929449000     9.860636000    17.688769000
 H       -0.637691000     8.429121000    18.564437000
 H       -1.951399000     7.686576000    17.653102000
 H       -0.589540000     8.443121000    16.798448000
 O       -1.399208000    10.855873000    17.151431000
 N       -3.087613000     9.936672000    18.343167000
 H       -3.510978000    10.842736000    18.553694000
 H       -3.494143000     9.099314000    18.765939000
