 9
# Fragment[ 10 11 16 17 18 12 13 14 15] of 9b. Acetamide trimer, 3B-69 Test set   
 C        6.991216000     5.196760000     6.917890000
 C        7.675449000     6.543182000     6.945436000
 H        6.383691000     5.111667000     7.821104000
 H        7.697399000     4.369121000     6.909768000
 H        6.335540000     5.125666000     6.055115000
 O        7.145208000     7.538418000     6.408098000
 N        8.833613000     6.619218000     7.599834000
 H        9.256978000     7.525281000     7.810360000
 H        9.240143000     5.781859000     8.022606000
