 9
# Fragment[ 19 20 25 26 27 21 22 23 24] of 9b. Acetamide trimer, 3B-69 Test set   
 C       14.987866000     3.456191000     6.917890000
 C       13.479714000     3.375543000     6.945436000
 H       15.365321000     2.972605000     7.821104000
 H       15.351531000     4.481583000     6.909768000
 H       15.377273000     2.923905000     6.055115000
 O       12.882934000     2.418723000     6.408098000
 N       12.834783000     4.340524000     7.599834000
 H       11.838426000     4.254138000     7.810360000
 H       13.356692000     5.111269000     8.022606000
