 18
# merged:  Fragment[ 10 11 16 17 18 12 13 14 15] of Acetamide #3, B3LYP-D*/TZP geometry    Fragment[ 19 20 25 26 27 21 22 23 24] of Acetamide #3, B3LYP-D*/TZP geometry   
 C       13.742134000     0.138736000     9.066560000
 C       15.250286000     0.058089000     9.094100000
 H       13.364679000    -0.344849000     9.969770000
 H       13.378469000     1.164128000     9.058430000
 H       13.352727000    -0.393550000     8.203780000
 O       15.847066000    -0.898732000     8.556760000
 N       15.895217000     1.023070000     9.748500000
 H       16.891574000     0.936683000     9.959030000
 H       15.373308000     1.793814000    10.171270000
 C       12.496918000     4.616868000    11.215220000
 C       13.320837000     3.351094000    11.242770000
 H       12.726988000     5.185547000    12.118440000
 H       11.427070000     4.419115000    11.207100000
 H       12.763188000     5.220247000    10.352450000
 O       14.447857000     3.312678000    10.705430000
 N       12.807604000     2.310076000    11.897170000
 H       13.380595000     1.490400000    12.107690000
 H       11.879165000     2.376691000    12.319940000
