27
Imidazole #1, B3LYP-D*/TZP geometry            
N   1.225156   1.790098    0.79367
C   0.314568   1.191681    1.59033
N   0.098973   1.892803    2.69279
C   0.918281   2.995570    2.59282
C   1.622758   2.943251    1.42272
H   1.619151   1.410346   -0.09321
H  -0.165462   0.258212    1.35379
H   0.967252   3.744556    3.36083
H   2.357781   3.610084    1.01224
N   1.588037   3.575902    7.75786
C   2.498625   4.174319    6.96120
N   2.714220   3.473197    5.85873
C   1.894912   2.370431    5.95870
C   1.190435   2.422749    7.12880
H   1.194042   3.955654    8.64473
H   2.978655   5.107788    7.19773
H   1.845941   1.621444    5.19069
H   0.455412   1.755916    7.53928
N  -1.152747   0.892902    5.06943
C  -2.063336   1.491319    5.86609
N  -2.278930   0.790197    6.96855
C  -1.459623  -0.312569    6.86858
C  -0.755146  -0.260251    5.69848
H  -0.758752   1.272654    4.18255
H  -2.543365   2.424788    5.62955
H  -1.410652  -1.061556    7.63659
H  -0.020123  -0.927084    5.28801
