 9
# Fragment[ 19 20 23 24 21 25 22 27 26] of 10a. Imidazole trimer, 3B-69 Test set            
 N       -1.152747000     0.892902000     5.069428000
 C       -2.063336000     1.491319000     5.866087000
 C       -0.755146000    -0.260251000     5.698478000
 H       -0.758752000     1.272654000     4.182549000
 N       -2.278930000     0.790197000     6.968550000
 H       -2.543365000     2.424788000     5.629552000
 C       -1.459623000    -0.312569000     6.868582000
 H       -0.020123000    -0.927084000     5.288005000
 H       -1.410652000    -1.061556000     7.636594000
