 9
# Fragment[ 10 11 14 15 12 16 13 18 17] of 10a. Imidazole trimer, 3B-69 Test set            
 N        1.588037000     3.575902000     7.757855000
 C        2.498625000     4.174319000     6.961195000
 C        1.190435000     2.422749000     7.128805000
 H        1.194042000     3.955654000     8.644733000
 N        2.714220000     3.473197000     5.858733000
 H        2.978655000     5.107788000     7.197730000
 C        1.894912000     2.370431000     5.958700000
 H        0.455412000     1.755916000     7.539278000
 H        1.845941000     1.621444000     5.190688000
