 9
# Fragment[ 19 20 23 24 21 25 22 27 26] of 10b. Imidazole trimer, 3B-69 Test set
 N        6.416253000     6.258902000     5.069428000
 C        5.505664000     6.857319000     5.866087000
 C        6.813854000     5.105749000     5.698478000
 H        6.810248000     6.638654000     4.182549000
 N        5.290070000     6.156197000     6.968550000
 H        5.025635000     7.790788000     5.629552000
 C        6.109377000     5.053431000     6.868582000
 H        7.548877000     4.438916000     5.288005000
 H        6.158348000     4.304444000     7.636594000
