 18
# merged:  Fragment[ 10 11 14 15 12 16 13 18 17] of 10b. Imidazole trimer, 3B-69 Test set Fragment[ 19 20 23 24 21 25 22 27 26] of 10b. Imidazole trimer, 3B-69 Test set
 N        3.965941000     9.839098000     3.482094000
 C        4.876529000     9.240681000     2.685434000
 C        3.568339000    10.992251000     2.853044000
 H        3.571945000     9.459346000     4.368972000
 N        5.092123000     9.941803000     1.582972000
 H        5.356558000     8.307212000     2.921969000
 C        4.272816000    11.044569000     1.682939000
 H        2.833316000    11.659084000     3.263517000
 H        4.223845000    11.793556000     0.914927000
 N        6.416253000     6.258902000     5.069428000
 C        5.505664000     6.857319000     5.866087000
 C        6.813854000     5.105749000     5.698478000
 H        6.810248000     6.638654000     4.182549000
 N        5.290070000     6.156197000     6.968550000
 H        5.025635000     7.790788000     5.629552000
 C        6.109377000     5.053431000     6.868582000
 H        7.548877000     4.438916000     5.288005000
 H        6.158348000     4.304444000     7.636594000
