 9
# Fragment[ 10 11 14 15 12 16 13 18 17] of 10c. Imidazole trimer, 3B-69 Test set            
 N       -3.530651000     1.790098000     9.345189000
 C       -4.441239000     1.191681000    10.141848000
 C       -3.133049000     2.943251000     9.974238000
 H       -3.136656000     1.410346000     8.458310000
 N       -4.656834000     1.892803000    11.244311000
 H       -4.921269000     0.258212000     9.905313000
 C       -3.837526000     2.995570000    11.144343000
 H       -2.398026000     3.610084000     9.563765000
 H       -3.788555000     3.744556000    11.912355000
