 9
# Fragment[ 1 2 6 3 5 9 4 8 7] of Isoxazole #1, B3LYP-D*/TZP geometry            
 O        0.492354000    17.073364000     2.537440000
 N        1.798473000    16.694123000     2.876900000
 C        0.452423000    18.416167000     2.466510000
 C        2.471400000    17.819028000     3.017690000
 C        1.656726000    18.954747000     2.752060000
 H       -0.503537000    18.832499000     2.208670000
 O        3.748782000    17.852113000     3.372030000
 H        1.933991000    19.992652000     2.790030000
 H        4.054562000    16.938298000     3.666930000
