 9
# Fragment[ 1 2 6 3 5 9 4 8 7] of 11a. Isoxazole trimer, 3B-69 Test set            
 O        0.492354000    17.073364000     2.537438000
 N        1.798473000    16.694123000     2.876901000
 C        0.452423000    18.416167000     2.466513000
 C        2.471400000    17.819028000     3.017689000
 C        1.656726000    18.954747000     2.752056000
 H       -0.503537000    18.832499000     2.208674000
 O        3.748782000    17.852113000     3.372032000
 H        1.933991000    19.992652000     2.790034000
 H        4.054562000    16.938298000     3.666928000
