 9
# Fragment[ 19 20 24 21 23 27 22 26 25] of Isoxazole #1, B3LYP-D*/TZP geometry            
 O        5.679703000    14.970636000     4.548000000
 N        4.373584000    15.349877000     4.208540000
 C        5.719634000    13.627833000     4.618930000
 C        3.700657000    14.224972000     4.067750000
 C        4.515331000    13.089253000     4.333380000
 H        6.675595000    13.211501000     4.876770000
 O        2.423275000    14.191887000     3.713410000
 H        4.238066000    12.051348000     4.295410000
 H        2.117495000    15.105702000     3.418510000
