 9
# Fragment[ 1 2 6 3 5 9 4 8 7] of 11b. Isoxazole trimer, 3B-69 Test set         
 O        5.635182000     5.056864000     8.090723000
 N        4.329062000     4.677623000     7.751259000
 C        5.675113000     6.399667000     8.161648000
 C        3.656135000     5.802528000     7.610472000
 C        4.470810000     6.938247000     7.876105000
 H        6.631073000     6.815999000     8.419487000
 O        2.378753000     5.835613000     7.256129000
 H        4.193545000     7.976152000     7.838127000
 H        2.072973000     4.921798000     6.961233000
