 18
# merged:  Fragment[ 10 11 15 12 14 18 13 17 16] of 11b. Isoxazole trimer, 3B-69 Test set          Fragment[ 19 20 24 21 23 27 22 26 25] of 11b. Isoxazole trimer, 3B-69 Test set         
 O       11.896282000     5.056864000     8.090723000
 N       10.590162000     4.677623000     7.751259000
 C       11.936213000     6.399667000     8.161648000
 C        9.917235000     5.802528000     7.610472000
 C       10.731910000     6.938247000     7.876105000
 H       12.892173000     6.815999000     8.419487000
 O        8.639853000     5.835613000     7.256129000
 H       10.454645000     7.976152000     7.838127000
 H        8.334073000     4.921798000     6.961233000
 O        6.708932000     2.954136000     6.080158000
 N        8.015052000     3.333377000     6.419622000
 C        6.669001000     1.611333000     6.009233000
 C        8.687979000     2.208472000     6.560409000
 C        7.873304000     1.072753000     6.294776000
 H        5.713041000     1.195001000     5.751394000
 O        9.965361000     2.175387000     6.914752000
 H        8.150569000     0.034848000     6.332754000
 H       10.271141000     3.089202000     7.209648000
