 9
# Fragment[ 19 20 24 21 23 27 22 26 25] of 11c. Isoxazole trimer, 3B-69 Test set         
 O        5.679703000     6.959636000     4.548003000
 N        4.373584000     7.338877000     4.208539000
 C        5.719634000     5.616833000     4.618928000
 C        3.700657000     6.213972000     4.067751000
 C        4.515331000     5.078253000     4.333385000
 H        6.675595000     5.200501000     4.876767000
 O        2.423275000     6.180887000     3.713409000
 H        4.238066000     4.040348000     4.295407000
 H        2.117495000     7.094702000     3.418512000
