 18
# merged:  Fragment[ 1 2 6 3 5 9 4 8 7] of 11c. Isoxazole trimer, 3B-69 Test set          Fragment[ 10 11 15 12 14 18 13 17 16] of 11c. Isoxazole trimer, 3B-69 Test set         
 O        0.492354000     9.062364000     2.537438000
 N        1.798473000     8.683123000     2.876901000
 C        0.452423000    10.405167000     2.466513000
 C        2.471400000     9.808028000     3.017689000
 C        1.656726000    10.943747000     2.752056000
 H       -0.503537000    10.821499000     2.208674000
 O        3.748782000     9.841113000     3.372032000
 H        1.933991000    11.981652000     2.790034000
 H        4.054562000     8.927298000     3.666928000
 O        6.708932000     2.954136000     6.080158000
 N        8.015052000     3.333377000     6.419622000
 C        6.669001000     1.611333000     6.009233000
 C        8.687979000     2.208472000     6.560409000
 C        7.873304000     1.072753000     6.294776000
 H        5.713041000     1.195001000     5.751394000
 O        9.965361000     2.175387000     6.914752000
 H        8.150569000     0.034848000     6.332754000
 H       10.271141000     3.089202000     7.209648000
