 18
# merged:  Fragment[ 1 2 6 3 5 9 4 8 7] of 11c. Isoxazole trimer, 3B-69 Test set          Fragment[ 19 20 24 21 23 27 22 26 25] of 11c. Isoxazole trimer, 3B-69 Test set         
 O        0.492354000     9.062364000     2.537438000
 N        1.798473000     8.683123000     2.876901000
 C        0.452423000    10.405167000     2.466513000
 C        2.471400000     9.808028000     3.017689000
 C        1.656726000    10.943747000     2.752056000
 H       -0.503537000    10.821499000     2.208674000
 O        3.748782000     9.841113000     3.372032000
 H        1.933991000    11.981652000     2.790034000
 H        4.054562000     8.927298000     3.666928000
 O        5.679703000     6.959636000     4.548003000
 N        4.373584000     7.338877000     4.208539000
 C        5.719634000     5.616833000     4.618928000
 C        3.700657000     6.213972000     4.067751000
 C        4.515331000     5.078253000     4.333385000
 H        6.675595000     5.200501000     4.876767000
 O        2.423275000     6.180887000     3.713409000
 H        4.238066000     4.040348000     4.295407000
 H        2.117495000     7.094702000     3.418512000
