 18
# merged:  Fragment[ 1 2 7 9 3 6 8 5 4] of Pyrazole #1, B3LYP-D*/TZP geometry                    Fragment[ 10 11 16 18 12 15 17 14 13] of Pyrazole #1, B3LYP-D*/TZP geometry                   
 C       10.627016000     5.579002000     5.969050000
 C       11.476074000     4.843862000     6.811400000
 H       10.840612000     6.458651000     5.386430000
 N        9.404905000     5.043760000     5.936670000
 C       10.688278000     3.817185000     7.295060000
 H       12.510061000     5.034319000     7.031660000
 N        9.461334000     3.972773000     6.757420000
 H       10.917516000     3.011175000     7.967690000
 H        8.629312000     3.364017000     6.843580000
 C        5.922353000     2.348921000     6.261980000
 C        5.048807000     1.377253000     6.773810000
 H        5.722353000     3.102313000     5.520470000
 N        7.127429000     2.256777000     6.826910000
 C        5.801878000     0.678241000     7.695750000
 H        4.020061000     1.210588000     6.514270000
 N        7.033572000     1.229218000     7.696360000
 H        5.554540000    -0.141615000     8.345620000
 H        7.837666000     1.037377000     8.313720000
