 9
# Fragment[ 19 20 25 27 21 24 26 23 22] of Pyrazole #2, B3LYP-D*/TZP geometry                    
 C        5.922353000     3.945079000     2.875480000
 C        5.048807000     4.916747000     3.387310000
 H        5.722353000     3.191687000     2.133970000
 N        7.127429000     4.037223000     3.440410000
 C        5.801878000     5.615759000     4.309250000
 H        4.020061000     5.083412000     3.127770000
 N        7.033572000     5.064782000     4.309860000
 H        5.554540000     6.435615000     4.959120000
 H        7.837666000     5.256623000     4.927220000
