 18
# merged:  Fragment[ 1 2 7 9 3 6 8 5 4] of 12b. Pyrazole trimer, 3B-69 Test set                     Fragment[ 19 20 25 27 21 24 26 23 22] of 12b. Pyrazole trimer, 3B-69 Test set                    
 C        2.437016000     5.579002000     5.969045000
 C        3.286074000     4.843862000     6.811403000
 H        2.650612000     6.458651000     5.386431000
 N        1.214905000     5.043760000     5.936670000
 C        2.498278000     3.817185000     7.295063000
 H        4.320061000     5.034319000     7.031661000
 N        1.271334000     3.972773000     6.757422000
 H        2.727516000     3.011175000     7.967689000
 H        0.439312000     3.364017000     6.843575000
 C        5.922353000     3.945079000     2.875477000
 C        5.048807000     4.916747000     3.387313000
 H        5.722353000     3.191687000     2.133969000
 N        7.127429000     4.037223000     3.440413000
 C        5.801878000     5.615759000     4.309254000
 H        4.020061000     5.083412000     3.127771000
 N        7.033572000     5.064782000     4.309863000
 H        5.554540000     6.435615000     4.959123000
 H        7.837666000     5.256623000     4.927222000
