 9
# Fragment[ 10 11 16 18 12 15 17 14 13] of 12c. Pyrazole trimer, 3B-69 Test set                    
 C       14.722016000    11.873002000    10.963455000
 C       15.571074000    11.137862000    10.121097000
 H       14.935612000    12.752651000    11.546069000
 N       13.499905000    11.337760000    10.995830000
 C       14.783278000    10.111185000     9.637437000
 H       16.605061000    11.328319000     9.900839000
 N       13.556334000    10.266773000    10.175078000
 H       15.012516000     9.305175000     8.964811000
 H       12.724312000     9.658017000    10.088925000
