 18
# merged:  Fragment[ 1 2 7 9 3 6 8 5 4] of 12c. Pyrazole trimer, 3B-69 Test set                     Fragment[ 10 11 16 18 12 15 17 14 13] of 12c. Pyrazole trimer, 3B-69 Test set                    
 C       14.722016000     7.008998000    14.349955000
 C       15.571074000     7.744138000    13.507597000
 H       14.935612000     6.129349000    14.932569000
 N       13.499905000     7.544240000    14.382330000
 C       14.783278000     8.770815000    13.023937000
 H       16.605061000     7.553681000    13.287339000
 N       13.556334000     8.615227000    13.561578000
 H       15.012516000     9.576825000    12.351311000
 H       12.724312000     9.223983000    13.475425000
 C       14.722016000    11.873002000    10.963455000
 C       15.571074000    11.137862000    10.121097000
 H       14.935612000    12.752651000    11.546069000
 N       13.499905000    11.337760000    10.995830000
 C       14.783278000    10.111185000     9.637437000
 H       16.605061000    11.328319000     9.900839000
 N       13.556334000    10.266773000    10.175078000
 H       15.012516000     9.305175000     8.964811000
 H       12.724312000     9.658017000    10.088925000
