 9
# Fragment[ 19 20 25 27 21 24 26 23 22] of Pyrazole #3, B3LYP-D*/TZP geometry                    
 C       10.017353000     8.642921000    17.443520000
 C        9.143807000     7.671253000    16.931690000
 H        9.817353000     9.396313000    18.185030000
 N       11.222429000     8.550777000    16.878590000
 C        9.896878000     6.972241000    16.009750000
 H        8.115062000     7.504588000    17.191230000
 N       11.128572000     7.523218000    16.009140000
 H        9.649540000     6.152385000    15.359880000
 H       11.932666000     7.331377000    15.391780000
