27
Triazine #1, B3LYP-D*/TZP geometry               
C  -3.523470   8.354547    9.10125
N  -4.139624   7.170039    9.10125
H  -2.441366   8.354547    9.10125
C  -5.473515   9.480406    9.10125
N  -4.139624   9.539055    9.10125
H  -6.014567  10.417535    9.10125
C  -5.473515   7.228688    9.10125
N  -6.191252   8.354547    9.10125
H  -6.014567   6.291559    9.10125
C  -4.173485   7.228688    5.46075
N  -3.455748   8.354547    5.46075
H  -3.632433   6.291559    5.46075
C  -6.123530   8.354547    5.46075
N  -5.507376   7.170039    5.46075
H  -7.205634   8.354547    5.46075
C  -4.173485   9.480406    5.46075
N  -5.507376   9.539055    5.46075
H  -3.632433  10.417535    5.46075
C  -4.173485   7.228688   12.74175
N  -3.455748   8.354547   12.74175
H  -3.632433   6.291559   12.74175
C  -6.123530   8.354547   12.74175
N  -5.507376   7.170039   12.74175
H  -7.205634   8.354547   12.74175
C  -4.173485   9.480406   12.74175
N  -5.507376   9.539055   12.74175
H  -3.632433  10.417535   12.74175
