27
Triazine #2, B3LYP-D*/TZP geometry               
C  -3.523470   8.354547    9.10125
N  -4.139624   7.170039    9.10125
H  -2.441366   8.354547    9.10125
C  -5.473515   9.480406    9.10125
N  -4.139624   9.539055    9.10125
H  -6.014567  10.417535    9.10125
C  -5.473515   7.228688    9.10125
N  -6.191252   8.354547    9.10125
H  -6.014567   6.291559    9.10125
C   1.300030   5.569698    6.67425
N   0.683876   4.385190    6.67425
H   2.382134   5.569698    6.67425
C  -0.650015   6.695557    6.67425
N   0.683876   6.754206    6.67425
H  -1.191067   7.632686    6.67425
C  -0.650015   4.443839    6.67425
N  -1.367752   5.569698    6.67425
H  -1.191067   3.506710    6.67425
C   0.650015  10.013537    7.88775
N   1.367752  11.139396    7.88775
H   1.191067   9.076408    7.88775
C  -1.300030  11.139396    7.88775
N  -0.683876   9.954888    7.88775
H  -2.382134  11.139396    7.88775
C   0.650015  12.265255    7.88775
N  -0.683876  12.323904    7.88775
H   1.191067  13.202384    7.88775
