 18
# merged:  Fragment[ 1 2 3 5 7 4 8 9 6] of Triazine #2, B3LYP-D*/TZP geometry                Fragment[ 10 11 12 14 16 13 17 18 15] of Triazine #2, B3LYP-D*/TZP geometry               
 C       -3.523470000     8.354547000     9.101250000
 N       -4.139624000     7.170039000     9.101250000
 H       -2.441366000     8.354547000     9.101250000
 N       -4.139624000     9.539055000     9.101250000
 C       -5.473515000     7.228688000     9.101250000
 C       -5.473515000     9.480406000     9.101250000
 N       -6.191252000     8.354547000     9.101250000
 H       -6.014567000     6.291559000     9.101250000
 H       -6.014567000    10.417535000     9.101250000
 C        1.300030000     5.569698000     6.674250000
 N        0.683876000     4.385190000     6.674250000
 H        2.382134000     5.569698000     6.674250000
 N        0.683876000     6.754206000     6.674250000
 C       -0.650015000     4.443839000     6.674250000
 C       -0.650015000     6.695557000     6.674250000
 N       -1.367752000     5.569698000     6.674250000
 H       -1.191067000     3.506710000     6.674250000
 H       -1.191067000     7.632686000     6.674250000
