 9
# Fragment[ 1 2 3 5 7 4 8 9 6] of 13b. Triazine trimer, 3B-69 Test set               
 C       -3.523470000     8.354547000     9.101250000
 N       -4.139624000     7.170039000     9.101250000
 H       -2.441366000     8.354547000     9.101250000
 N       -4.139624000     9.539055000     9.101250000
 C       -5.473515000     7.228688000     9.101250000
 C       -5.473515000     9.480406000     9.101250000
 N       -6.191252000     8.354547000     9.101250000
 H       -6.014567000     6.291559000     9.101250000
 H       -6.014567000    10.417535000     9.101250000
