 10
# Fragment[ 11 13 18 20 12 14 15 16 17 19] of 14a. Cyanoacetamide trimer, 3B-69 Test set
 C        2.914349000    23.782511000     0.683048000
 C        3.427280000    25.112897000     1.251656000
 N        3.423129000    22.691524000     1.262585000
 O        2.121953000    23.756077000    -0.261952000
 C        2.787287000    26.254583000     0.628049000
 H        3.275043000    25.177288000     2.329501000
 H        4.505214000    25.194233000     1.093851000
 H        3.103105000    21.776494000     0.938231000
 H        4.039968000    22.763235000     2.063953000
 N        2.282408000    27.162428000     0.135524000
