 20
# merged:  Fragment[ 1 3 8 10 2 4 5 6 7 9] of 14a. Cyanoacetamide trimer, 3B-69 Test set Fragment[ 11 13 18 20 12 14 15 16 17 19] of 14a. Cyanoacetamide trimer, 3B-69 Test set
 C        1.548277000    23.663489000     4.208642000
 C        2.061208000    22.333103000     4.777250000
 N        2.057057000    24.754476000     4.788179000
 O        0.755881000    23.689923000     3.263642000
 C        1.421215000    21.191417000     4.153643000
 H        1.908971000    22.268712000     5.855094000
 H        3.139142000    22.251767000     4.619444000
 H        1.737034000    25.669506000     4.463824000
 H        2.673896000    24.682765000     5.589546000
 N        0.916336000    20.283572000     3.661117000
 C        2.914349000    23.782511000     0.683048000
 C        3.427280000    25.112897000     1.251656000
 N        3.423129000    22.691524000     1.262585000
 O        2.121953000    23.756077000    -0.261952000
 C        2.787287000    26.254583000     0.628049000
 H        3.275043000    25.177288000     2.329501000
 H        4.505214000    25.194233000     1.093851000
 H        3.103105000    21.776494000     0.938231000
 H        4.039968000    22.763235000     2.063953000
 N        2.282408000    27.162428000     0.135524000
