 10
# Fragment[ 21 22 28 23 24 25 29 30 26 27] of 14b. Cyanoacetamide trimer, 3B-69 Test set
 C        5.578016000    10.975209000     4.180296000
 C        5.959025000    12.127875000     4.971369000
 N        5.270009000    10.060585000     3.555913000
 C        5.523547000    13.445790000     4.318499000
 H        7.033398000    12.094121000     5.147860000
 H        5.473121000    12.047895000     5.947323000
 N        6.093512000    14.541115000     4.832460000
 O        4.699107000    13.463141000     3.402268000
 H        5.745653000    15.451129000     4.522561000
 H        6.694405000    14.482010000     5.647154000
