 10
# Fragment[ 11 13 18 20 12 14 15 16 17 19] of 14c. Cyanoacetamide trimer, 3B-69 Test set
 C        8.339364000     3.329489000    13.419325000
 C        7.826432000     1.999103000    12.850717000
 N        7.830584000     4.420476000    12.839788000
 O        9.131759000     3.355923000    14.364325000
 C        8.466425000     0.857417000    13.474324000
 H        7.978670000     1.934712000    11.772873000
 H        6.748498000     1.917767000    13.008523000
 H        8.150607000     5.335506000    13.164143000
 H        7.213744000     4.348765000    12.038421000
 N        8.971305000    -0.050428000    13.966850000
