 20
# merged:  Fragment[ 1 3 8 10 2 4 5 6 7 9] of Cyanoacetamide #1, B3LYP-D*/TZP geometry Fragment[ 11 13 18 20 12 14 15 16 17 19] of Cyanoacetamide #1, B3LYP-D*/TZP geometry
 C        2.712508000     3.329489000     6.368138000
 C        2.199576000     1.999103000     5.799531000
 N        2.203727000     4.420476000     5.788601000
 O        3.504903000     3.355923000     7.313138000
 C        2.839569000     0.857417000     6.423138000
 H        2.351814000     1.934712000     4.721686000
 H        1.121642000     1.917767000     5.957336000
 H        2.523751000     5.335506000     6.112956000
 H        1.586888000     4.348765000     4.987234000
 N        3.344448000    -0.050428000     6.915663000
 C        8.339364000     3.329489000    13.419325000
 C        7.826432000     1.999103000    12.850717000
 N        7.830584000     4.420476000    12.839788000
 O        9.131759000     3.355923000    14.364325000
 C        8.466425000     0.857417000    13.474324000
 H        7.978670000     1.934712000    11.772873000
 H        6.748498000     1.917767000    13.008523000
 H        8.150607000     5.335506000    13.164143000
 H        7.213744000     4.348765000    12.038421000
 N        8.971305000    -0.050428000    13.966850000
