 20
# merged:  Fragment[ 21 22 28 23 24 25 29 30 26 27] of Cyanoacetamide #1, B3LYP-D*/TZP geometry Fragment[ 1 3 8 10 2 4 5 6 7 9] of Cyanoacetamide #1, B3LYP-D*/TZP geometry
 C        5.675696000     2.580791000     9.922077000
 C        5.294688000     1.428125000     9.131005000
 N        5.983703000     3.495415000    10.546460000
 C        5.730166000     0.110210000     9.783874000
 H        4.220314000     1.461879000     8.954514000
 H        5.780591000     1.508105000     8.155050000
 N        5.160200000    -0.985115000     9.269913000
 O        6.554606000     0.092859000    10.700105000
 H        5.508059000    -1.895129000     9.579813000
 H        4.559308000    -0.926010000     8.455219000
 C        2.712508000     3.329489000     6.368138000
 C        2.199576000     1.999103000     5.799531000
 N        2.203727000     4.420476000     5.788601000
 O        3.504903000     3.355923000     7.313138000
 C        2.839569000     0.857417000     6.423138000
 H        2.351814000     1.934712000     4.721686000
 H        1.121642000     1.917767000     5.957336000
 H        2.523751000     5.335506000     6.112956000
 H        1.586888000     4.348765000     4.987234000
 N        3.344448000    -0.050428000     6.915663000
