 20
# merged:  Fragment[ 1 2 3 4 5 6 7 8 9 10] of 15a. Cyanoguanidine trimer, 3B-69 Test set  Fragment[ 21 22 23 24 25 26 27 28 29 30] of 15a. Cyanoguanidine trimer, 3B-69 Test set 
 N        3.187601000     4.376465000    -1.496641000
 C        2.374574000     4.877151000    -0.822315000
 N        1.447054000     5.487370000    -0.158373000
 C        1.185537000     5.156956000     1.116757000
 N        1.867065000     4.229109000     1.797929000
 N        0.206646000     5.817607000     1.733021000
 H        1.540497000     3.957310000     2.717722000
 H        2.611069000     3.685335000     1.377566000
 H       -0.007785000     5.587082000     2.696952000
 H       -0.346843000     6.494360000     1.207981000
 N        0.356682000     4.471135000     4.404010000
 C       -0.456344000     3.970449000     5.078337000
 N       -1.383864000     3.360230000     5.742278000
 C       -1.645381000     3.690644000     7.017409000
 N       -0.963853000     4.618491000     7.698580000
 N       -2.624272000     3.029993000     7.633673000
 H       -1.290422000     4.890290000     8.618374000
 H       -0.219850000     5.162265000     7.278218000
 H       -2.838703000     3.260518000     8.597604000
 H       -3.177761000     2.353240000     7.108633000
