 20
# merged:  Fragment[ 1 2 3 4 5 6 7 8 9 10] of Cyanoguanidine #1, B3LYP-D*/TZP geometry  Fragment[ 11 12 13 14 15 16 17 18 19 20] of Cyanoguanidine #1, B3LYP-D*/TZP geometry 
 N        3.187601000     4.376465000    -1.496640000
 C        2.374574000     4.877151000    -0.822320000
 N        1.447054000     5.487370000    -0.158370000
 C        1.185537000     5.156956000     1.116760000
 N        1.867065000     4.229109000     1.797930000
 N        0.206646000     5.817607000     1.733020000
 H        1.540497000     3.957310000     2.717720000
 H        2.611069000     3.685335000     1.377570000
 H       -0.007785000     5.587082000     2.696950000
 H       -0.346843000     6.494360000     1.207980000
 N        1.420831000     6.588365000     7.397290000
 C        2.233857000     7.089051000     6.722970000
 N        3.161378000     7.699270000     6.059030000
 C        3.422894000     7.368856000     4.783890000
 N        2.741366000     6.441009000     4.102720000
 N        4.401785000     8.029507000     4.167630000
 H        3.067935000     6.169210000     3.182930000
 H        1.997363000     5.897235000     4.523090000
 H        4.616216000     7.798982000     3.203700000
 H        4.955274000     8.706260000     4.692670000
