 10
# Fragment[ 11 12 13 14 15 16 17 18 19 20] of Cyanoguanidine #1, B3LYP-D*/TZP geometry 
 N        1.420831000     6.588365000     7.397290000
 C        2.233857000     7.089051000     6.722970000
 N        3.161378000     7.699270000     6.059030000
 C        3.422894000     7.368856000     4.783890000
 N        2.741366000     6.441009000     4.102720000
 N        4.401785000     8.029507000     4.167630000
 H        3.067935000     6.169210000     3.182930000
 H        1.997363000     5.897235000     4.523090000
 H        4.616216000     7.798982000     3.203700000
 H        4.955274000     8.706260000     4.692670000
