 10
# Fragment[ 21 22 23 24 25 26 27 28 29 30] of 15a. Cyanoguanidine trimer, 3B-69 Test set 
 N        0.356682000     4.471135000     4.404010000
 C       -0.456344000     3.970449000     5.078337000
 N       -1.383864000     3.360230000     5.742278000
 C       -1.645381000     3.690644000     7.017409000
 N       -0.963853000     4.618491000     7.698580000
 N       -2.624272000     3.029993000     7.633673000
 H       -1.290422000     4.890290000     8.618374000
 H       -0.219850000     5.162265000     7.278218000
 H       -2.838703000     3.260518000     8.597604000
 H       -3.177761000     2.353240000     7.108633000
