 20
# merged:  Fragment[ 11 12 13 14 15 16 17 18 19 20] of 15b. Cyanoguanidine trimer, 3B-69 Test set        Fragment[ 21 22 23 24 25 26 27 28 29 30] of 15b. Cyanoguanidine trimer, 3B-69 Test set       
 N       -1.410087000     2.259235000    13.297945000
 C       -0.597061000     1.758549000    12.623618000
 N        0.330459000     1.148330000    11.959677000
 C        0.591976000     1.478744000    10.684546000
 N       -0.089552000     2.406591000    10.003375000
 N        1.570867000     0.818093000    10.068282000
 H        0.237017000     2.678390000     9.083581000
 H       -0.833555000     2.950365000    10.423737000
 H        1.785298000     1.048618000     9.104352000
 H        2.124356000     0.141340000    10.593322000
 N       -1.410087000     6.683035000    13.297945000
 C       -0.597061000     6.182349000    12.623618000
 N        0.330459000     5.572130000    11.959677000
 C        0.591976000     5.902544000    10.684546000
 N       -0.089552000     6.830391000    10.003375000
 N        1.570867000     5.241893000    10.068282000
 H        0.237017000     7.102190000     9.083581000
 H       -0.833555000     7.374165000    10.423737000
 H        1.785298000     5.472418000     9.104352000
 H        2.124356000     4.565140000    10.593322000
