 20
# merged:  Fragment[ 1 2 3 4 5 6 7 8 9 10] of 15c. Cyanoguanidine trimer, 3B-69 Test set        Fragment[ 11 12 13 14 15 16 17 18 19 20] of 15c. Cyanoguanidine trimer, 3B-69 Test set       
 N        3.187601000    -0.047335000    -1.496641000
 C        2.374574000     0.453351000    -0.822315000
 N        1.447054000     1.063570000    -0.158373000
 C        1.185537000     0.733156000     1.116757000
 N        1.867065000    -0.194691000     1.797929000
 N        0.206646000     1.393807000     1.733021000
 H        1.540497000    -0.466490000     2.717722000
 H        2.611069000    -0.738465000     1.377566000
 H       -0.007785000     1.163282000     2.696952000
 H       -0.346843000     2.070560000     1.207981000
 N        1.420831000     2.164565000     7.397293000
 C        2.233857000     2.665251000     6.722967000
 N        3.161378000     3.275470000     6.059025000
 C        3.422894000     2.945056000     4.783894000
 N        2.741366000     2.017209000     4.102723000
 N        4.401785000     3.605707000     4.167630000
 H        3.067935000     1.745410000     3.182930000
 H        1.997363000     1.473435000     4.523086000
 H        4.616216000     3.375182000     3.203700000
 H        4.955274000     4.282460000     4.692670000
