 10
# Fragment[ 1 2 3 4 5 6 7 8 9 10] of 15c. Cyanoguanidine trimer, 3B-69 Test set       
 N        3.187601000    -0.047335000    -1.496641000
 C        2.374574000     0.453351000    -0.822315000
 N        1.447054000     1.063570000    -0.158373000
 C        1.185537000     0.733156000     1.116757000
 N        1.867065000    -0.194691000     1.797929000
 N        0.206646000     1.393807000     1.733021000
 H        1.540497000    -0.466490000     2.717722000
 H        2.611069000    -0.738465000     1.377566000
 H       -0.007785000     1.163282000     2.696952000
 H       -0.346843000     2.070560000     1.207981000
