 20
# merged:  Fragment[ 11 12 13 14 15 16 17 18 19 20] of 15c. Cyanoguanidine trimer, 3B-69 Test set        Fragment[ 21 22 23 24 25 26 27 28 29 30] of 15c. Cyanoguanidine trimer, 3B-69 Test set       
 N        1.420831000     2.164565000     7.397293000
 C        2.233857000     2.665251000     6.722967000
 N        3.161378000     3.275470000     6.059025000
 C        3.422894000     2.945056000     4.783894000
 N        2.741366000     2.017209000     4.102723000
 N        4.401785000     3.605707000     4.167630000
 H        3.067935000     1.745410000     3.182930000
 H        1.997363000     1.473435000     4.523086000
 H        4.616216000     3.375182000     3.203700000
 H        4.955274000     4.282460000     4.692670000
 N        0.356682000     4.471135000     4.404010000
 C       -0.456344000     3.970449000     5.078337000
 N       -1.383864000     3.360230000     5.742278000
 C       -1.645381000     3.690644000     7.017409000
 N       -0.963853000     4.618491000     7.698580000
 N       -2.624272000     3.029993000     7.633673000
 H       -1.290422000     4.890290000     8.618374000
 H       -0.219850000     5.162265000     7.278218000
 H       -2.838703000     3.260518000     8.597604000
 H       -3.177761000     2.353240000     7.108633000
