 10
# Fragment[ 1 2 5 8 3 9 4 7 6 10] of Triazolidinedone #1, B3LYP-D*/TZP geometry               
 N        1.296199000    16.903650000     2.170500000
 N        1.754569000    15.900980000     1.297390000
 C        0.794265000    17.923919000     1.428930000
 H        1.848494000    17.110082000     3.012280000
 C        1.340650000    16.219380000     0.033730000
 H        1.701831000    14.936932000     1.625960000
 N        0.817392000    17.492314000     0.119490000
 O        0.394001000    19.016772000     1.835030000
 O        1.428880000    15.542910000    -0.986570000
 H        0.400617000    18.004684000    -0.673230000
