 20
# merged:  Fragment[ 1 2 5 8 3 9 4 7 6 10] of 16a. 1,2,4-Triazolidine-3,5-done trimer, 3B-69 Test set Fragment[ 11 12 15 18 13 19 14 17 16 20] of 16a. 1,2,4-Triazolidine-3,5-done trimer, 3B-69 Test set
 N        1.296199000    16.903650000     2.170497000
 N        1.754569000    15.900980000     1.297392000
 C        0.794265000    17.923919000     1.428927000
 H        1.848494000    17.110082000     3.012280000
 C        1.340650000    16.219380000     0.033733000
 H        1.701831000    14.936932000     1.625956000
 N        0.817392000    17.492314000     0.119488000
 O        0.394001000    19.016772000     1.835033000
 O        1.428880000    15.542910000    -0.986570000
 H        0.400617000    18.004684000    -0.673229000
 N        4.758199000    16.903650000     2.170497000
 N        5.216569000    15.900980000     1.297392000
 C        4.256265000    17.923919000     1.428927000
 H        5.310494000    17.110082000     3.012280000
 C        4.802650000    16.219380000     0.033733000
 H        5.163831000    14.936932000     1.625956000
 N        4.279392000    17.492314000     0.119488000
 O        3.856001000    19.016772000     1.835033000
 O        4.890880000    15.542910000    -0.986570000
 H        3.862617000    18.004684000    -0.673229000
