 10
# Fragment[ 21 22 25 28 23 29 24 27 26 30] of 16b. 1,2,4-Triazolidine-3,5-done trimer, 3B-69 Test set   
 N        2.542325000     6.878850000     7.646573000
 N        3.000696000     7.881521000     6.773467000
 C        2.040392000     5.858581000     6.905003000
 H        3.094620000     6.672418000     8.488355000
 C        2.586777000     7.563120000     5.509808000
 H        2.947958000     8.845568000     7.102032000
 N        2.063518000     6.290186000     5.595564000
 O        1.640127000     4.765728000     7.311109000
 O        2.675006000     8.239590000     4.489506000
 H        1.646744000     5.777816000     4.802847000
