 20
# merged:  Fragment[ 1 2 5 8 3 9 4 7 6 10] of Triazolidinedone #2, B3LYP-D*/TZP geometry    Fragment[ 11 12 15 18 13 19 14 17 16 20] of Triazolidinedone #2, B3LYP-D*/TZP geometry   
 N       -0.050072000     2.634150000     3.305580000
 N       -0.508443000     1.631479000     4.178680000
 C        0.451861000     3.654419000     4.047150000
 H       -0.602367000     2.840582000     2.463800000
 C       -0.094523000     1.949880000     5.442340000
 H       -0.455705000     0.667432000     3.850120000
 N        0.428735000     3.222814000     5.356590000
 O        0.852126000     4.747272000     3.641040000
 O       -0.182753000     1.273410000     6.462650000
 H        0.845509000     3.735184000     6.149300000
 N        1.196054000     2.122350000     8.781650000
 N        0.737684000     3.125021000     9.654760000
 C        1.697988000     1.102081000     9.523220000
 H        0.643759000     1.915918000     7.939870000
 C        1.151603000     2.806620000    10.918420000
 H        0.790422000     4.089068000     9.326200000
 N        1.674861000     1.533686000    10.832660000
 O        2.098252000     0.009228000     9.117120000
 O        1.063373000     3.483090000    11.938720000
 H        2.091636000     1.021316000    11.625380000
