 10
# Fragment[ 1 2 5 8 3 9 4 7 6 10] of 16c. 1,2,4-Triazolidine-3,5-done trimer, 3B-69 Test set   
 N       -0.050072000    12.147150000     3.305578000
 N       -0.508443000    11.144479000     4.178684000
 C        0.451861000    13.167419000     4.047148000
 H       -0.602367000    12.353582000     2.463796000
 C       -0.094523000    11.462880000     5.442343000
 H       -0.455705000    10.180432000     3.850119000
 N        0.428735000    12.735814000     5.356588000
 O        0.852126000    14.260272000     3.641043000
 O       -0.182753000    10.786410000     6.462645000
 H        0.845509000    13.248184000     6.149304000
