 10
# Fragment[ 21 22 25 28 23 29 24 27 26 30] of 16c. 1,2,4-Triazolidine-3,5-done trimer, 3B-69 Test set   
 N        1.196054000    11.635350000     8.781654000
 N        0.737684000    12.638020000     9.654759000
 C        1.697988000    10.615081000     9.523224000
 H        0.643759000    11.428918000     7.939872000
 C        1.151603000    12.319620000    10.918419000
 H        0.790422000    13.602068000     9.326195000
 N        1.674861000    11.046686000    10.832663000
 O        2.098252000     9.522228000     9.117118000
 O        1.063373000    12.996090000    11.938721000
 H        2.091636000    10.534316000    11.625380000
