 22
# merged:  Fragment[ 1 4 6 7 5 8 9 2 3 10 11] of 17a. 2-Oxazolidinone trimer, 3B-69 Test set        Fragment[ 23 26 28 29 27 30 31 24 25 32 33] of 17a. 2-Oxazolidinone trimer, 3B-69 Test set       
 N        0.567048000     4.838445000     5.370438000
 C        0.173717000     4.046721000     4.211985000
 C        0.147555000     6.109764000     5.290126000
 H        0.969993000     4.457730000     6.230055000
 C       -0.266649000     5.158913000     3.244881000
 H       -0.630481000     3.355750000     4.460112000
 H        1.012720000     3.476585000     3.817056000
 O       -0.442292000     6.333394000     4.087222000
 O        0.233157000     7.002241000     6.125743000
 H        0.495568000     5.398370000     2.504984000
 H       -1.210198000     4.958202000     2.750776000
 N        1.432652000     7.674945000     8.637451000
 C        1.825983000     6.883221000     9.795904000
 C        1.852144000     8.946264000     8.717763000
 H        1.029707000     7.294230000     7.777834000
 C        2.266349000     7.995413000    10.763008000
 H        2.630180000     6.192250000     9.547777000
 H        0.986979000     6.313085000    10.190833000
 O        2.441991000     9.169894000     9.920667000
 O        1.766543000     9.838741000     7.882146000
 H        1.504131000     8.234870000    11.502905000
 H        3.209898000     7.794702000    11.257113000
