33
2-Oxazolidinone #1, B3LYP-D*/TZP geometry       
N   0.567048   4.838445    5.37044
O  -0.442292   6.333394    4.08722
O   0.233157   7.002241    6.12574
C   0.173717   4.046721    4.21199
C  -0.266649   5.158913    3.24488
C   0.147555   6.109764    5.29013
H   0.969993   4.457730    6.23006
H  -0.630481   3.355750    4.46011
H   1.012720   3.476585    3.81706
H   0.495568   5.398370    2.50498
H  -1.210198   4.958202    2.75078
N   1.432652   2.001945    8.63745
O   2.441991   3.496894    9.92067
O   1.766543   4.165741    7.88215
C   1.825983   1.210221    9.79590
C   2.266349   2.322413   10.76301
C   1.852144   3.273264    8.71776
H   1.029707   1.621230    7.77783
H   2.630180   0.519250    9.54778
H   0.986979   0.640085   10.19083
H   1.504131   2.561870   11.50291
H   3.209898   2.121702   11.25711
N   1.432652   7.674945    8.63745
O   2.441991   9.169894    9.92067
O   1.766543   9.838741    7.88215
C   1.825983   6.883221    9.79590
C   2.266349   7.995413   10.76301
C   1.852144   8.946264    8.71776
H   1.029707   7.294230    7.77783
H   2.630180   6.192250    9.54778
H   0.986979   6.313085   10.19083
H   1.504131   8.234870   11.50291
H   3.209898   7.794702   11.25711
