 11
# Fragment[ 12 15 17 18 16 19 20 13 14 21 22] of 17a. 2-Oxazolidinone trimer, 3B-69 Test set       
 N        1.432652000     2.001945000     8.637451000
 C        1.825983000     1.210221000     9.795904000
 C        1.852144000     3.273264000     8.717763000
 H        1.029707000     1.621230000     7.777834000
 C        2.266349000     2.322413000    10.763008000
 H        2.630180000     0.519250000     9.547777000
 H        0.986979000     0.640085000    10.190833000
 O        2.441991000     3.496894000     9.920667000
 O        1.766543000     4.165741000     7.882146000
 H        1.504131000     2.561870000    11.502905000
 H        3.209898000     2.121702000    11.257113000
