 11
# Fragment[ 1 4 6 7 5 8 9 2 3 10 11] of 17a. 2-Oxazolidinone trimer, 3B-69 Test set       
 N        0.567048000     4.838445000     5.370438000
 C        0.173717000     4.046721000     4.211985000
 C        0.147555000     6.109764000     5.290126000
 H        0.969993000     4.457730000     6.230055000
 C       -0.266649000     5.158913000     3.244881000
 H       -0.630481000     3.355750000     4.460112000
 H        1.012720000     3.476585000     3.817056000
 O       -0.442292000     6.333394000     4.087222000
 O        0.233157000     7.002241000     6.125743000
 H        0.495568000     5.398370000     2.504984000
 H       -1.210198000     4.958202000     2.750776000
