 11
# Fragment[ 1 4 6 7 5 8 9 2 3 10 11] of 17b. 2-Oxazolidinone trimer, 3B-69 Test set               
 N        7.885048000    10.511445000     5.370438000
 C        7.491717000     9.719721000     4.211985000
 C        7.465555000    11.782764000     5.290126000
 H        8.287993000    10.130730000     6.230055000
 C        7.051351000    10.831913000     3.244881000
 H        6.687519000     9.028750000     4.460112000
 H        8.330720000     9.149585000     3.817056000
 O        6.875708000    12.006394000     4.087222000
 O        7.551157000    12.675241000     6.125743000
 H        7.813568000    11.071370000     2.504984000
 H        6.107802000    10.631202000     2.750776000
