 11
# Fragment[ 12 15 17 18 16 19 20 13 14 21 22] of 17b. 2-Oxazolidinone trimer, 3B-69 Test set               
 N        8.750652000     7.674945000     8.637451000
 C        9.143983000     6.883221000     9.795904000
 C        9.170144000     8.946264000     8.717763000
 H        8.347707000     7.294230000     7.777834000
 C        9.584349000     7.995413000    10.763008000
 H        9.948180000     6.192250000     9.547777000
 H        8.304979000     6.313085000    10.190833000
 O        9.759991000     9.169894000     9.920667000
 O        9.084543000     9.838741000     7.882146000
 H        8.822131000     8.234870000    11.502905000
 H       10.527898000     7.794702000    11.257113000
