 11
# Fragment[ 23 26 28 29 27 30 31 24 25 32 33] of 17b. 2-Oxazolidinone trimer, 3B-69 Test set               
 N        6.112281000     9.344055000    10.039734000
 C        5.718950000    10.135779000     8.881282000
 C        5.692788000     8.072736000     9.959422000
 H        6.515226000     9.724770000    10.899352000
 C        5.278584000     9.023587000     7.914177000
 H        4.914753000    10.826750000     9.129408000
 H        6.557953000    10.705915000     8.486353000
 O        5.102941000     7.849106000     8.756518000
 O        5.778390000     7.180259000    10.795040000
 H        6.040801000     8.784130000     7.174280000
 H        4.335035000     9.224298000     7.420072000
