 22
# merged:  Fragment[ 23 26 28 29 27 30 31 24 25 32 33] of 2-Oxazolidinone #2, B3LYP-D*/TZP geometry                Fragment[ 1 4 6 7 5 8 9 2 3 10 11] of 2-Oxazolidinone #2, B3LYP-D*/TZP geometry               
 N        6.112281000     9.344055000    10.039730000
 C        5.718950000    10.135779000     8.881280000
 C        5.692788000     8.072736000     9.959420000
 H        6.515226000     9.724770000    10.899350000
 C        5.278584000     9.023587000     7.914180000
 H        4.914753000    10.826750000     9.129410000
 H        6.557953000    10.705915000     8.486350000
 O        5.102941000     7.849106000     8.756520000
 O        5.778390000     7.180259000    10.795040000
 H        6.040801000     8.784130000     7.174280000
 H        4.335035000     9.224298000     7.420070000
 N        7.885048000    10.511445000     5.370440000
 C        7.491717000     9.719721000     4.211990000
 C        7.465555000    11.782764000     5.290130000
 H        8.287993000    10.130730000     6.230060000
 C        7.051351000    10.831913000     3.244880000
 H        6.687519000     9.028750000     4.460110000
 H        8.330720000     9.149585000     3.817060000
 O        6.875708000    12.006394000     4.087220000
 O        7.551157000    12.675241000     6.125740000
 H        7.813568000    11.071370000     2.504980000
 H        6.107802000    10.631202000     2.750780000
