 11
# Fragment[ 1 4 6 7 5 8 9 2 3 10 11] of 2-Oxazolidinone #3, B3LYP-D*/TZP geometry               
 N        7.885048000     4.838445000     5.370440000
 C        7.491717000     4.046721000     4.211990000
 C        7.465555000     6.109764000     5.290130000
 H        8.287993000     4.457730000     6.230060000
 C        7.051351000     5.158913000     3.244880000
 H        6.687519000     3.355750000     4.460110000
 H        8.330720000     3.476585000     3.817060000
 O        6.875708000     6.333394000     4.087220000
 O        7.551157000     7.002241000     6.125740000
 H        7.813568000     5.398370000     2.504980000
 H        6.107802000     4.958202000     2.750780000
