 11
# Fragment[ 1 4 6 7 5 8 9 2 3 10 11] of 17c. 2-Oxazolidinone trimer, 3B-69 Test set               
 N        7.885048000     4.838445000     5.370438000
 C        7.491717000     4.046721000     4.211985000
 C        7.465555000     6.109764000     5.290126000
 H        8.287993000     4.457730000     6.230055000
 C        7.051351000     5.158913000     3.244881000
 H        6.687519000     3.355750000     4.460112000
 H        8.330720000     3.476585000     3.817056000
 O        6.875708000     6.333394000     4.087222000
 O        7.551157000     7.002241000     6.125743000
 H        7.813568000     5.398370000     2.504984000
 H        6.107802000     4.958202000     2.750776000
