 11
# Fragment[ 23 26 28 29 27 30 31 24 25 32 33] of 17c. 2-Oxazolidinone trimer, 3B-69 Test set               
 N       10.523419000     6.507555000     3.968155000
 C       10.916750000     7.299279000     5.126607000
 C       10.942911000     5.236236000     4.048467000
 H       10.120473000     6.888270000     3.108537000
 C       11.357116000     6.187087000     6.093712000
 H       11.720947000     7.990250000     4.878481000
 H       10.077746000     7.869415000     5.521536000
 O       11.532758000     5.012606000     5.251371000
 O       10.857310000     4.343759000     3.212849000
 H       10.594898000     5.947630000     6.833609000
 H       12.300665000     6.387798000     6.587817000
