 22
# merged:  Fragment[ 1 4 6 7 5 8 9 2 3 10 11] of 17c. 2-Oxazolidinone trimer, 3B-69 Test set                Fragment[ 12 15 17 18 16 19 20 13 14 21 22] of 17c. 2-Oxazolidinone trimer, 3B-69 Test set               
 N        7.885048000     4.838445000     5.370438000
 C        7.491717000     4.046721000     4.211985000
 C        7.465555000     6.109764000     5.290126000
 H        8.287993000     4.457730000     6.230055000
 C        7.051351000     5.158913000     3.244881000
 H        6.687519000     3.355750000     4.460112000
 H        8.330720000     3.476585000     3.817056000
 O        6.875708000     6.333394000     4.087222000
 O        7.551157000     7.002241000     6.125743000
 H        7.813568000     5.398370000     2.504984000
 H        6.107802000     4.958202000     2.750776000
 N        4.978186000     2.001945000    -0.701142000
 C        5.371517000     1.210221000     0.457311000
 C        5.397678000     3.273264000    -0.620830000
 H        4.575240000     1.621230000    -1.560759000
 C        5.811882000     2.322413000     1.424416000
 H        6.175714000     0.519250000     0.209184000
 H        4.532513000     0.640085000     0.852240000
 O        5.987525000     3.496894000     0.582074000
 O        5.312076000     4.165741000    -1.456447000
 H        5.049665000     2.561870000     2.164312000
 H        6.755431000     2.121702000     1.918520000
