 22
# merged:  Fragment[ 23 26 29 24 27 25 28 30 31 32 33] of XYZ Fragment[ 1 4 7 2 5 3 6 8 9 10 11] of XYZ
 O        8.046799000     4.762210000     7.411095000
 C        9.021567000     4.681444000     8.397767000
 C        8.382065000     3.980201000     6.313577000
 O        8.910411000     5.314924000     9.405598000
 C       10.110376000     3.740080000     7.959089000
 O        7.664829000     3.962487000     5.355468000
 C        9.683116000     3.267078000     6.571236000
 H       11.058144000     4.275993000     7.951684000
 H       10.202970000     2.944644000     8.695039000
 H        9.510611000     2.193563000     6.508114000
 H       10.392349000     3.531872000     5.788386000
 O        8.283701000     1.247560000    10.220655000
 C        7.308933000     1.166794000     9.233983000
 C        7.948435000     0.465551000    11.318173000
 O        7.420089000     1.800274000     8.226152000
 C        6.220124000     0.225430000     9.672661000
 O        8.665671000     0.447837000    12.276282000
 C        6.647384000    -0.247572000    11.060514000
 H        5.272356000     0.761343000     9.680066000
 H        6.127530000    -0.570006000     8.936711000
 H        6.819889000    -1.321087000    11.123636000
 H        5.938151000     0.017222000    11.843364000
