 11
# Fragment[ 23 26 29 24 27 25 28 30 31 32 33] of XYZ
 O        8.046799000     4.762210000     7.411095000
 C        9.021567000     4.681444000     8.397767000
 C        8.382065000     3.980201000     6.313577000
 O        8.910411000     5.314924000     9.405598000
 C       10.110376000     3.740080000     7.959089000
 O        7.664829000     3.962487000     5.355468000
 C        9.683116000     3.267078000     6.571236000
 H       11.058144000     4.275993000     7.951684000
 H       10.202970000     2.944644000     8.695039000
 H        9.510611000     2.193563000     6.508114000
 H       10.392349000     3.531872000     5.788386000
