 11
# Fragment[ 23 26 29 24 27 25 28 30 31 32 33] of XYZ
 O        8.046799000    11.791510000    19.165595000
 C        9.021567000    11.710744000    20.152267000
 C        8.382065000    11.009501000    18.068077000
 O        8.910411000    12.344224000    21.160098000
 C       10.110376000    10.769380000    19.713589000
 O        7.664829000    10.991787000    17.109968000
 C        9.683116000    10.296378000    18.325736000
 H       11.058144000    11.305293000    19.706184000
 H       10.202970000     9.973944000    20.449539000
 H        9.510611000     9.222863000    18.262614000
 H       10.392349000    10.561172000    17.542886000
