 11
# Fragment[ 23 26 29 24 27 25 28 30 31 32 33] of 18c. Succinic anhydride trimer, 3B-69 Test set
 O        2.603299000     4.762210000    19.165595000
 C        3.578067000     4.681444000    20.152267000
 C        2.938565000     3.980201000    18.068077000
 O        3.466911000     5.314924000    21.160098000
 C        4.666876000     3.740080000    19.713589000
 O        2.221329000     3.962487000    17.109968000
 C        4.239616000     3.267078000    18.325736000
 H        5.614644000     4.275993000    19.706184000
 H        4.759470000     2.944644000    20.449539000
 H        4.067111000     2.193563000    18.262614000
 H        4.948849000     3.531872000    17.542886000
