 24
# merged:  Fragment[ 1 2 3 4 5 9 6 8 7 12 11 10] of Benzene #1, B3LYP-D*/TZP geometry Fragment[ 13 14 15 16 17 21 18 20 19 24 23 22] of Benzene #1, B3LYP-D*/TZP geometry
 C       14.171733000    20.025411000     6.679440000
 C       13.705640000    19.092508000     7.601810000
 C       15.173718000    19.675303000     5.778370000
 H       13.746682000    21.020351000     6.659470000
 H       12.924382000    19.352746000     8.303710000
 C       14.246682000    17.809497000     7.620430000
 H       15.516834000    20.398010000     5.052550000
 C       15.714760000    18.392292000     5.796990000
 C       15.248667000    17.459389000     6.719360000
 H       13.903566000    17.086790000     8.346250000
 H       16.496018000    18.132054000     5.095090000
 H       15.673718000    16.464449000     6.739330000
 C       10.494183000    12.773789000     6.719360000
 C       10.028090000    13.706692000     5.796990000
 C       11.496168000    13.123897000     7.620430000
 H       10.069132000    11.778849000     6.739330000
 H        9.246832000    13.446454000     5.095090000
 C       10.569132000    14.989703000     5.778370000
 H       11.839284000    12.401190000     8.346250000
 C       12.037210000    14.406908000     7.601810000
 C       11.571117000    15.339811000     6.679440000
 H       10.226016000    15.712410000     5.052550000
 H       12.818468000    14.667146000     8.303710000
 H       11.996168000    16.334751000     6.659470000
