 12
# Fragment[ 1 2 3 4 5 9 6 8 7 12 11 10] of Benzene #1, B3LYP-D*/TZP geometry
 C       14.171733000    20.025411000     6.679440000
 C       13.705640000    19.092508000     7.601810000
 C       15.173718000    19.675303000     5.778370000
 H       13.746682000    21.020351000     6.659470000
 H       12.924382000    19.352746000     8.303710000
 C       14.246682000    17.809497000     7.620430000
 H       15.516834000    20.398010000     5.052550000
 C       15.714760000    18.392292000     5.796990000
 C       15.248667000    17.459389000     6.719360000
 H       13.903566000    17.086790000     8.346250000
 H       16.496018000    18.132054000     5.095090000
 H       15.673718000    16.464449000     6.739330000
