 23
# merged:  Fragment[ 1 2 3 4 5 9 6 8 7 12 11 10] of 19a. Benzene trimer, 3B-69 Test set Fragment[ 25 26 27 28 29 33 30 32 31 35 34] of 19a. Benzene trimer, 3B-69 Test set
 C       14.171733000    20.025411000     6.679436000
 C       13.705640000    19.092508000     7.601809000
 C       15.173718000    19.675303000     5.778366000
 H       13.746682000    21.020351000     6.659472000
 H       12.924382000    19.352746000     8.303705000
 C       14.246682000    17.809497000     7.620434000
 H       15.516834000    20.398010000     5.052553000
 C       15.714760000    18.392292000     5.796991000
 C       15.248667000    17.459389000     6.719364000
 H       13.903566000    17.086790000     8.346247000
 H       16.496018000    18.132054000     5.095095000
 H       15.673718000    16.464449000     6.739328000
 C       11.571117000    17.459389000    10.029136000
 C       12.037210000    18.392292000    10.951509000
 C       10.569132000    17.809497000     9.128066000
 H       11.996168000    16.464449000    10.009172000
 H       12.818468000    18.132054000    11.653405000
 C       11.496168000    19.675303000    10.970134000
 H       10.226016000    17.086790000     8.402253000
 C       10.028090000    19.092508000     9.146691000
 C       10.494183000    20.025411000    10.069064000
 H        9.246832000    19.352746000     8.444795000
 H       10.069132000    21.020351000    10.089028000
