 12
# Fragment[ 1 2 3 4 5 9 6 8 7 12 11 10] of Benzene #2, B3LYP-D*/TZP geometry 
 C       10.494183000    12.773789000    13.418760000
 C       10.028090000    13.706692000    12.496390000
 C       11.496168000    13.123897000    14.319830000
 H       10.069132000    11.778849000    13.438730000
 H        9.246832000    13.446454000    11.794490000
 C       10.569132000    14.989703000    12.477770000
 H       11.839284000    12.401190000    15.045650000
 C       12.037210000    14.406908000    14.301210000
 C       11.571117000    15.339811000    13.378840000
 H       10.226016000    15.712410000    11.751950000
 H       12.818468000    14.667146000    15.003100000
 H       11.996168000    16.334751000    13.358870000
