 12
# Fragment[ 13 14 15 16 17 21 18 20 19 24 23 22] of 19b. Benzene trimer, 3B-69 Test set 
 C       15.248667000    15.339811000    10.069064000
 C       15.714760000    14.406908000     9.146691000
 C       14.246682000    14.989703000    10.970134000
 H       15.673718000    16.334751000    10.089028000
 H       16.496018000    14.667146000     8.444795000
 C       15.173718000    13.123897000     9.128066000
 H       13.903566000    15.712410000    11.695947000
 C       13.705640000    13.706692000    10.951509000
 C       14.171733000    12.773789000    10.029136000
 H       15.516834000    12.401190000     8.402253000
 H       12.924382000    13.446454000    11.653405000
 H       13.746682000    11.778849000    10.009172000
