 12
# Fragment[ 1 2 3 4 5 9 6 8 7 12 11 10] of 19b. Benzene trimer, 3B-69 Test set 
 C       10.494183000    12.773789000    13.418764000
 C       10.028090000    13.706692000    12.496391000
 C       11.496168000    13.123897000    14.319834000
 H       10.069132000    11.778849000    13.438728000
 H        9.246832000    13.446454000    11.794495000
 C       10.569132000    14.989703000    12.477766000
 H       11.839284000    12.401190000    15.045647000
 C       12.037210000    14.406908000    14.301209000
 C       11.571117000    15.339811000    13.378836000
 H       10.226016000    15.712410000    11.751953000
 H       12.818468000    14.667146000    15.003105000
 H       11.996168000    16.334751000    13.358872000
