 12
# Fragment[ 25 26 27 28 29 33 30 32 31 36 35 34] of Benzene #3, B3LYP-D*/TZP geometry 
 C        4.216017000    17.459389000    10.029140000
 C        4.682110000    18.392292000    10.951510000
 C        3.214032000    17.809497000     9.128070000
 H        4.641068000    16.464449000    10.009170000
 H        5.463368000    18.132054000    11.653400000
 C        4.141068000    19.675303000    10.970130000
 H        2.870916000    17.086790000     8.402250000
 C        2.672990000    19.092508000     9.146690000
 C        3.139083000    20.025411000    10.069060000
 H        4.484184000    20.398010000    11.695950000
 H        1.891732000    19.352746000     8.444790000
 H        2.714032000    21.020351000    10.089030000
