 24
# merged:  Fragment[ 1 2 7 9 3 4 8 5 6 10 12 11] of 20a. Maleic Acid trimer, 3B-69 Test set        Fragment[ 13 14 19 21 15 16 20 17 18 22 24 23] of 20a. Maleic Acid trimer, 3B-69 Test set       
 C       -1.812866000     3.535867000     7.854403000
 C       -3.019070000     4.394092000     7.792090000
 O       -0.712671000     4.235658000     7.949894000
 O       -1.820850000     2.303290000     7.796572000
 H       -2.805931000     5.454418000     7.726603000
 C       -4.302655000     4.018833000     7.784558000
 H        0.111684000     3.656381000     7.952260000
 H       -5.037740000     4.808884000     7.706247000
 C       -4.936171000     2.675625000     7.888204000
 O       -4.226933000     1.572740000     7.922753000
 O       -6.160859000     2.589500000     7.962157000
 H       -3.229793000     1.745595000     7.834420000
 C       -3.945878000     1.506583000    10.966906000
 C       -5.152081000     0.648358000    10.904594000
 O       -2.845682000     0.806792000    11.062398000
 O       -3.953861000     2.739160000    10.909076000
 H       -4.938942000    -0.411968000    10.839107000
 C       -6.435667000     1.023617000    10.897062000
 H       -2.021327000     1.386069000    11.064763000
 H       -7.170751000     0.233566000    10.818751000
 C       -7.069182000     2.366825000    11.000708000
 O       -6.359945000     3.469710000    11.035257000
 O       -8.293870000     2.452950000    11.074661000
 H       -5.362805000     3.296855000    10.946924000
