36
Maleic Acid #3, B3LYP-D*/TZP geometry       
C  -1.647553  10.845738    6.20320
O  -2.151260  10.135432    5.22031
H  -2.044314   9.136168    5.37317
O  -1.751616  12.068249    6.16272
C  -0.955798  10.207203    7.36027
H  -0.559945  10.946547    8.04409
C  -0.752528   8.923996    7.68177
H  -0.206856   8.720057    8.59470
C  -1.192451   7.714058    6.94530
O  -0.824514   6.606276    7.53547
H  -1.177353   5.797481    7.04902
O  -1.842498   7.729101    5.89732
C   2.045747  10.845738    6.20320
O   1.542040  10.135432    5.22031
H   1.648986   9.136168    5.37317
O   1.941684  12.068249    6.16272
C   2.737502  10.207203    7.36027
H   3.133355  10.946547    8.04409
C   2.940772   8.923996    7.68177
H   3.486444   8.720057    8.59470
C   2.500849   7.714058    6.94530
O   2.868786   6.606276    7.53547
H   2.515947   5.797481    7.04902
O   1.850802   7.729101    5.89732
C   5.739047  10.845738    6.20320
O   5.235340  10.135432    5.22031
H   5.342286   9.136168    5.37317
O   5.634984  12.068249    6.16272
C   6.430802  10.207203    7.36027
H   6.826655  10.946547    8.04409
C   6.634072   8.923996    7.68177
H   7.179744   8.720057    8.59470
C   6.194149   7.714058    6.94530
O   6.562086   6.606276    7.53547
H   6.209247   5.797481    7.04902
O   5.544102   7.729101    5.89732
