 12
# Fragment[ 1 2 4 5 3 6 7 8 9 10 12 11] of 20c. Maleic Acid trimer, 3B-69 Test set       
 C       -1.647553000    10.845738000     6.203201000
 O       -2.151260000    10.135432000     5.220314000
 O       -1.751616000    12.068249000     6.162720000
 C       -0.955798000    10.207203000     7.360275000
 H       -2.044314000     9.136168000     5.373168000
 H       -0.559945000    10.946547000     8.044089000
 C       -0.752528000     8.923996000     7.681774000
 H       -0.206856000     8.720057000     8.594701000
 C       -1.192451000     7.714058000     6.945301000
 O       -0.824514000     6.606276000     7.535470000
 O       -1.842498000     7.729101000     5.897324000
 H       -1.177353000     5.797481000     7.049024000
