36
XYZ
O             5.823654000     5.541048000     7.623703000
C             5.232525000     4.545440000     7.221364000
C             5.761253000     3.186365000     7.479383000
H             6.685935000     3.117301000     8.038752000
C             3.959516000     4.668808000     6.471979000
H             3.604306000     5.677619000     6.295076000
O             3.244420000     1.229952000     5.895778000
C             3.835549000     2.225560000     6.298118000
C             5.108559000     2.102192000     7.047503000
H             5.463769000     1.093381000     7.224406000
C             3.306821000     3.584635000     6.040099000
H             2.382139000     3.653699000     5.480730000
O             5.823654000    12.312048000     7.623703000
C             5.232525000    11.316440000     7.221364000
C             5.761253000     9.957365000     7.479383000
H             6.685935000     9.888301000     8.038752000
C             3.959516000    11.439808000     6.471979000
H             3.604306000    12.448619000     6.295076000
O             3.244420000     8.000952000     5.895778000
C             3.835549000     8.996560000     6.298118000
C             5.108559000     8.873192000     7.047503000
H             5.463769000     7.864381000     7.224406000
C             3.306821000    10.355635000     6.040099000
H             2.382139000    10.424699000     5.480730000
O            10.962173000     4.615452000    11.003574000
C            10.371044000     5.611060000    10.601234000
C            10.899772000     6.970135000    10.859253000
H            11.824454000     7.039199000    11.418622000
C             9.098034000     5.487692000     9.851849000
H             8.742824000     4.478881000     9.674947000
O             8.382939000     8.926548000     9.275649000
C             8.974068000     7.930940000     9.677989000
C            10.247077000     8.054308000    10.427374000
H            10.602287000     9.063119000    10.604276000
C             8.445340000     6.571865000     9.419969000
H             7.520658000     6.502801000     8.860601000
