 12
# Fragment[ 25 26 27 29 28 33 30 35 32 34 36 31] of 21c. para-Benzoquinone trimer, 3B-69 Test set
 O        0.685136000     4.615452000     4.243833000
 C        0.094007000     5.611060000     3.841493000
 C        0.622735000     6.970135000     4.099513000
 C       -1.179003000     5.487692000     3.092108000
 H        1.547417000     7.039199000     4.658881000
 C       -0.029960000     8.054308000     3.667633000
 H       -1.534213000     4.478881000     2.915206000
 C       -1.831698000     6.571865000     2.660228000
 C       -1.302969000     7.930940000     2.918248000
 H        0.325250000     9.063119000     3.844535000
 H       -2.756379000     6.502801000     2.100860000
 O       -1.894099000     8.926548000     2.515908000
