 24
# merged:  Fragment[ 25 33 34 35 28 30 26 31 27 29 36 32] of Uracil #1, B3LYP-D*/TZP geometry    Fragment[ 1 9 10 11 4 6 2 7 3 5 12 8] of Uracil #1, B3LYP-D*/TZP geometry   
 C        4.011172000     3.597332000     6.301430000
 N        5.371691000     3.496220000     6.440160000
 N        3.545198000     4.892480000     6.285530000
 O        3.269969000     2.638934000     6.204640000
 C        6.180588000     4.581966000     6.552090000
 H        5.675144000     2.717770000     6.403270000
 C        4.296630000     6.034909000     6.382380000
 H        2.684349000     5.015993000     6.172430000
 C        5.704376000     5.834418000     6.529760000
 H        7.112843000     4.376154000     6.624070000
 O        3.728367000     7.141695000     6.334330000
 H        6.251003000     6.586507000     6.582050000
 C       -1.957828000     2.590668000     6.301430000
 N       -0.597309000     2.691780000     6.440160000
 N       -2.423802000     1.295520000     6.285530000
 O       -2.699031000     3.549066000     6.204640000
 C        0.211588000     1.606034000     6.552090000
 H       -0.293856000     3.470230000     6.403270000
 C       -1.672370000     0.153091000     6.382380000
 H       -3.284651000     1.172007000     6.172430000
 C       -0.264624000     0.353582000     6.529760000
 H        1.143843000     1.811846000     6.624070000
 O       -2.240633000    -0.953695000     6.334330000
 H        0.282003000    -0.398507000     6.582050000
