 12
# Fragment[ 25 33 34 35 28 30 26 31 27 29 36 32] of 22a. Uracil trimer, 3B-69 Test set   
 C        4.011172000     3.597332000     6.301433000
 N        5.371691000     3.496220000     6.440156000
 N        3.545198000     4.892480000     6.285531000
 O        3.269969000     2.638934000     6.204644000
 C        6.180588000     4.581966000     6.552094000
 H        5.675144000     2.717770000     6.403272000
 C        4.296630000     6.034909000     6.382383000
 H        2.684349000     5.015993000     6.172433000
 C        5.704376000     5.834418000     6.529763000
 H        7.112843000     4.376154000     6.624074000
 O        3.728367000     7.141695000     6.334334000
 H        6.251003000     6.586507000     6.582047000
