 12
# Fragment[ 13 21 22 23 16 18 14 19 15 17 24 20] of 22a. Uracil trimer, 3B-69 Test set   
 C        0.418444000     8.778668000     6.244162000
 N       -0.942075000     8.879780000     6.105439000
 N        0.884418000     7.483520000     6.260064000
 O        1.159647000     9.737066000     6.340952000
 C       -1.750972000     7.794034000     5.993501000
 H       -1.245528000     9.658230000     6.142323000
 C        0.132986000     6.341091000     6.163212000
 H        1.745268000     7.360007000     6.373162000
 C       -1.274760000     6.541582000     6.015833000
 H       -2.683227000     7.999846000     5.921521000
 O        0.701249000     5.234305000     6.211262000
 H       -1.821387000     5.789493000     5.963549000
