 24
# merged:  Fragment[ 1 9 10 11 4 6 2 7 3 5 12 8] of Uracil #2, B3LYP-D*/TZP geometry    Fragment[ 13 21 22 23 16 18 14 19 15 17 24 20] of Uracil #2, B3LYP-D*/TZP geometry   
 C       13.734364000     2.590668000     0.028640000
 N       15.094883000     2.691780000     0.167360000
 N       13.268390000     1.295520000     0.012730000
 O       12.993161000     3.549066000    -0.068150000
 C       15.903780000     1.606034000     0.279300000
 H       15.398336000     3.470230000     0.130470000
 C       14.019822000     0.153091000     0.109590000
 H       12.407540000     1.172007000    -0.100360000
 C       15.427568000     0.353582000     0.256960000
 H       16.836035000     1.811846000     0.351280000
 O       13.451559000    -0.953695000     0.061540000
 H       15.974195000    -0.398507000     0.309250000
 C       11.857268000     2.590668000     3.165030000
 N       13.217787000     2.691780000     3.303760000
 N       11.391294000     1.295520000     3.149130000
 O       11.116065000     3.549066000     3.068250000
 C       14.026684000     1.606034000     3.415690000
 H       13.521240000     3.470230000     3.266870000
 C       12.142726000     0.153091000     3.245990000
 H       10.530444000     1.172007000     3.036030000
 C       13.550472000     0.353582000     3.393360000
 H       14.958939000     1.811846000     3.487680000
 O       11.574463000    -0.953695000     3.197940000
 H       14.097099000    -0.398507000     3.445650000
