 12
# Fragment[ 13 21 22 23 16 18 14 19 15 17 24 20] of 22c. Uracil trimer, 3B-69 Test set   
 C        8.264540000     9.785332000     3.107764000
 N        6.904021000     9.684220000     2.969041000
 N        8.730514000    11.080480000     3.123665000
 O        9.005743000     8.826934000     3.204553000
 C        6.095124000    10.769966000     2.857103000
 H        6.600568000     8.905770000     3.005925000
 C        7.979082000    12.222909000     3.026813000
 H        9.591364000    11.203993000     3.236764000
 C        6.571336000    12.022418000     2.879434000
 H        5.162869000    10.564154000     2.785122000
 O        8.547345000    13.329695000     3.074863000
 H        6.024709000    12.774507000     2.827150000
