 24
# merged:  Fragment[ 1 9 10 11 4 6 2 7 3 5 12 8] of 22c. Uracil trimer, 3B-69 Test set    Fragment[ 13 21 22 23 16 18 14 19 15 17 24 20] of 22c. Uracil trimer, 3B-69 Test set   
 C        0.418444000     8.778668000     6.244162000
 N       -0.942075000     8.879780000     6.105439000
 N        0.884418000     7.483520000     6.260064000
 O        1.159647000     9.737066000     6.340952000
 C       -1.750972000     7.794034000     5.993501000
 H       -1.245528000     9.658230000     6.142323000
 C        0.132986000     6.341091000     6.163212000
 H        1.745268000     7.360007000     6.373162000
 C       -1.274760000     6.541582000     6.015833000
 H       -2.683227000     7.999846000     5.921521000
 O        0.701249000     5.234305000     6.211262000
 H       -1.821387000     5.789493000     5.963549000
 C        8.264540000     9.785332000     3.107764000
 N        6.904021000     9.684220000     2.969041000
 N        8.730514000    11.080480000     3.123665000
 O        9.005743000     8.826934000     3.204553000
 C        6.095124000    10.769966000     2.857103000
 H        6.600568000     8.905770000     3.005925000
 C        7.979082000    12.222909000     3.026813000
 H        9.591364000    11.203993000     3.236764000
 C        6.571336000    12.022418000     2.879434000
 H        5.162869000    10.564154000     2.785122000
 O        8.547345000    13.329695000     3.074863000
 H        6.024709000    12.774507000     2.827150000
