 24
# merged:  Fragment[ 25 33 34 35 28 30 26 31 27 29 36 32] of Uracil #3, B3LYP-D*/TZP geometry    Fragment[ 1 9 10 11 4 6 2 7 3 5 12 8] of Uracil #3, B3LYP-D*/TZP geometry   
 C        6.387444000     9.785332000     6.244160000
 N        5.026925000     9.684220000     6.105440000
 N        6.853418000    11.080480000     6.260060000
 O        7.128647000     8.826934000     6.340950000
 C        4.218028000    10.769966000     5.993500000
 H        4.723472000     8.905770000     6.142320000
 C        6.101986000    12.222909000     6.163210000
 H        7.714268000    11.203993000     6.373160000
 C        4.694240000    12.022418000     6.015830000
 H        3.285773000    10.564154000     5.921520000
 O        6.670249000    13.329695000     6.211260000
 H        4.147613000    12.774507000     5.963550000
 C        0.418444000     8.778668000     6.244160000
 N       -0.942075000     8.879780000     6.105440000
 N        0.884418000     7.483520000     6.260060000
 O        1.159647000     9.737066000     6.340950000
 C       -1.750972000     7.794034000     5.993500000
 H       -1.245528000     9.658230000     6.142320000
 C        0.132986000     6.341091000     6.163210000
 H        1.745268000     7.360007000     6.373160000
 C       -1.274760000     6.541582000     6.015830000
 H       -2.683227000     7.999846000     5.921520000
 O        0.701249000     5.234305000     6.211260000
 H       -1.821387000     5.789493000     5.963550000
