 13
# Fragment[ 27 28 33 34 29 31 32 30 35 36 39 37 38] of 23b. 3,4-Cyclobutylfuran trimer, 3B-69 Test set
 C        5.083914000     6.706119000     9.633419000
 C        6.010262000     6.409193000     8.697313000
 O        4.994844000     8.081564000     9.717719000
 H        4.436332000     6.162872000    10.295140000
 C        6.895002000     5.563213000     7.790532000
 C        6.518507000     7.630170000     8.182996000
 C        5.886665000     8.641449000     8.816262000
 C        7.479025000     6.928222000     7.233146000
 H        6.353623000     4.976352000     7.049157000
 H        7.617204000     4.929195000     8.302622000
 H        5.904843000     9.715243000     8.811616000
 H        7.300663000     7.094996000     6.174316000
 H        8.534323000     7.081902000     7.447622000
