 13
# Fragment[ 1 2 7 8 3 5 6 4 9 10 13 11 12] of 3,4-Cyclobutylfuran #3, B3LYP-D*/TZP geometry
 C        0.033625000     6.706119000    19.311940000
 C        0.959973000     6.409193000    18.375834000
 O       -0.055444000     8.081564000    19.396240000
 H       -0.613956000     6.162872000    19.973661000
 C        1.844713000     5.563213000    17.469053000
 C        1.468218000     7.630170000    17.861517000
 C        0.836376000     8.641449000    18.494783000
 C        2.428737000     6.928222000    16.911667000
 H        1.303334000     4.976352000    16.727678000
 H        2.566915000     4.929195000    17.981144000
 H        0.854554000     9.715243000    18.490137000
 H        2.250375000     7.094996000    15.852837000
 H        3.484034000     7.081902000    17.126143000
