40

O     -0.41823      1.60875     -3.74723
C     -0.28988      1.85548     -2.57226
O     -1.31646      2.26935     -1.81637
H     -1.00550      2.38812     -0.88884
C      1.05013      1.73025     -1.83099
C      2.16083      1.33165     -2.77782
H      2.24139      2.05283     -3.58560
H      3.10779      1.27938     -2.24443
H      1.93843      0.36271     -3.22320
H      1.25888      2.69437     -1.36224
N      0.96537      0.74565     -0.75649
H      1.25218     -0.20025     -0.96993
C      0.28198      0.95259      0.38138
O     -0.28683      2.02451      0.63831
C      0.18980     -0.23120      1.32038
H      1.11533     -0.80865      1.30448
N     -0.01843      0.25826      2.65233
H     -0.44339      1.16357      2.80403
C      0.25472     -0.52287      3.72004
O      0.72289     -1.65474      3.63228
C     -0.07948      0.10402      5.06352
H      0.72845     -0.17020      5.74450
H     -0.97720     -0.40129      5.41889
N     -0.35246      1.53489      4.96206
H     -0.91298      1.84522      5.74315
H      0.50951      2.06330      4.99508
C     -0.96053     -1.16613      0.86598
H     -1.01034     -1.96664      1.60451
H     -1.89362     -0.60151      0.89625
C     -0.69917     -1.70105     -0.50936
C      0.32583     -2.63412     -0.70857
H      0.83398     -3.05592      0.15131
C      0.69630     -3.01681     -1.99705
H      1.48967     -3.73867     -2.13730
C      0.04371     -2.46991     -3.10244
H      0.33589     -2.75924     -4.10256
C     -0.99160     -1.55506     -2.91439
H     -1.49559     -1.11822     -3.76488
C     -1.35964     -1.17704     -1.62447
H     -2.14453     -0.44403     -1.48411
