41

O     -4.55726     -0.11785      0.01359
C     -3.27579      0.24449      0.19290
O     -2.92110      1.40147      0.26135
H     -5.06527      0.70668     -0.03053
C     -2.37888     -0.97513      0.22945
H     -2.16607     -1.25505     -0.80228
H     -2.93713     -1.78016      0.70264
N     -1.14471     -0.75988      0.92613
H     -0.29614     -0.54697      0.42502
C     -1.17966     -0.64726      2.28095
O     -2.22556     -0.71506      2.91333
C      0.15942     -0.46132      2.97546
H      0.13138     -1.06984      3.87867
H      0.25494      0.58091      3.28022
N      1.28882     -0.76649      2.14082
H      1.42928     -1.68311      1.73802
C      2.26315      0.13379      1.86963
O      2.33522      1.25052      2.37102
C      3.24053     -0.32072      0.78619
H      4.23294     -0.34378      1.23855
N      2.91661     -1.66650      0.30685
H      2.28521     -1.60458     -0.48589
H      3.75265     -2.12891     -0.02496
C      3.20416      0.76471     -0.30980
H      3.88189      0.47434     -1.11487
H      3.56844      1.69673      0.11954
C      1.81181      0.95119     -0.82120
C      0.87408      1.81904     -0.28951
H      0.98364      2.50898      0.53093
N     -0.31845      1.69291     -0.95435
H     -1.20463      2.02451     -0.59519
C     -0.20211      0.71270     -1.90264
C     -1.14710      0.21282     -2.80444
H     -2.15584      0.60532     -2.83519
C     -0.73728     -0.78748     -3.67410
H     -1.44251     -1.19562     -4.38516
C      0.58854     -1.26735     -3.66171
H      0.87683     -2.03388     -4.36808
C      1.52857     -0.76547     -2.77556
H      2.54874     -1.12936     -2.79798
C      1.13982      0.23018     -1.85848
