8
0 1
S    -2.1670849   -0.8976360   -0.5026725 
S    -2.1670849    0.8976360    0.5026725 
S    -0.8976360   -2.1670849    0.5026725 
S     0.8976360   -2.1670849   -0.5026725 
S     2.1670849   -0.8976360    0.5026725 
S     2.1670849    0.8976360   -0.5026725 
S     0.8976360    2.1670849    0.5026725 
S    -0.8976360    2.1670849   -0.5026725 
