10
0 1
C 0.435218 0.623225 0.000000
C -0.435218 -0.623225 0.000000
H 1.085090 0.604523 0.887930
H 1.085090 0.604523 -0.887930
H -1.085090 -0.604523 0.887930
H -1.085090 -0.604523 -0.887930
O -0.435218 1.742501 0.000000
H 0.101653 2.539350 0.000000
O 0.435218 -1.742501 0.000000
H -0.101653 -2.539350 0.000000
