12
0 1
C 1.859282 0.014584 -0.277408
C 0.722327 -0.292871 0.338870
H 1.960310 0.922316 -0.866533
H 2.735844 -0.621934 -0.217515
H 0.665871 -1.215974 0.917032
C -0.538306 0.523428 0.303158
H -0.797070 0.835299 1.324924
H -0.365034 1.442229 -0.268945
C -1.727759 -0.248360 -0.291410
H -1.925752 -1.165558 0.273987
H -2.638709 0.357926 -0.273499
H -1.528724 -0.534989 -1.328714
