14
0 1
C 1.069185 -1.211254 0.000033
C 1.867515 -0.070180 0.000012
C 1.233929 1.166936 0.000017
C -0.156017 1.206175 -0.000017
C -0.874345 0.007443 -0.000031
N -0.263847 -1.187035 -0.000029
H 1.810267 2.086615 0.000003
H 1.526869 -2.198476 -0.000042
H 2.948326 -0.154736 -0.000031
H -0.684017 2.153771 -0.000053
C -2.381066 -0.012480 0.000010
H -2.754603 -0.546370 0.879683
H -2.800505 0.996538 -0.000817
H -2.754614 -0.547940 -0.878686
