20
0 1
C -1.878832 -0.068725 -0.295198
C -1.080255 -1.281671 0.190186
C 0.987317 0.010819 0.320538
C 0.256551 1.273777 -0.157620
C -1.233855 1.229651 0.207822
H 0.823577 -1.999763 0.006557
H -1.175567 -1.352069 1.292333
H -1.495140 -2.205485 -0.227552
H -1.892731 -0.073152 -1.391853
H -2.916898 -0.144079 0.047167
H 0.940086 0.002954 1.429661
H 0.733035 2.159536 0.278241
H 0.368363 1.345385 -1.247292
H -1.339346 1.284593 1.300393
H -1.754242 2.103506 -0.199689
N 0.310625 -1.160547 -0.242996
C 2.456076 0.003383 -0.095947
H 2.980654 0.874287 0.309149
H 2.967667 -0.893651 0.272069
H 2.544161 0.018363 -1.186910
