14
0 1
C -0.006683 -1.219525 1.135642
C -0.006683 0.170635 1.188472
C -0.003538 0.903086 0.000000
C -0.006683 0.170635 -1.188472
C -0.006683 -1.219525 -1.135642
N -0.006407 -1.922984 0.000000
H -0.010765 -1.798721 2.056858
H -0.011599 0.676601 2.148991
H -0.011599 0.676601 -2.148991
H -0.010765 -1.798721 -2.056858
C 0.024693 2.409566 0.000000
H -0.467176 2.818366 0.887202
H 1.057388 2.779162 0.000000
H -0.467176 2.818366 -0.887202
