10
0 1
C 0.000003 0.189408 -0.000001
O -0.000003 1.398063 0.000000
C -1.290121 -0.614286 -0.000001
H -2.147743 0.059219 -0.000079
H -1.332898 -1.267059 -0.879359
H -1.332959 -1.266932 0.879449
C 1.290122 -0.614281 0.000001
H 1.332893 -1.267052 0.879362
H 1.332954 -1.266942 -0.879439
H 2.147755 0.059211 0.000070
