10
0 1
C 1.101850 -1.483262 0.000000
H 2.093524 -1.039983 0.000000
H 1.053989 -2.566154 0.000000
C -0.000012 -0.727129 0.000000
H -0.978551 -1.205559 0.000000
C 0.000000 0.727115 0.000000
H 0.978550 1.205524 0.000000
C -1.101844 1.483272 0.000000
H -2.093534 1.040033 0.000000
H -1.053941 2.566163 0.000000
