12
0 1
C 0.000000 1.590773 -0.520701
H 0.878544 2.248010 -0.503018
H 0.000000 1.060523 -1.475637
H -0.878544 2.248010 -0.503018
C 0.000000 0.666984 0.662654
C 0.000000 -0.666984 0.662654
H 0.000000 1.167735 1.629954
H 0.000000 -1.167735 1.629954
C 0.000000 -1.590773 -0.520701
H 0.878544 -2.248010 -0.503018
H -0.878544 -2.248010 -0.503018
H 0.000000 -1.060523 -1.475637
