14
0 1
C 0.134223 -0.461511 1.081635
C 0.134223 0.650165 0.000000
C 0.134223 -0.461511 -1.081635
C 0.635835 -1.456718 0.000000
H 0.748283 -0.312656 1.973503
H -0.893306 -0.681914 1.384848
H 1.110873 1.162777 0.000000
H 0.748283 -0.312656 -1.973503
H -0.893306 -0.681914 -1.384848
H 1.725783 -1.546492 0.000000
H 0.207364 -2.461060 0.000000
N -1.008748 1.554038 0.000000
H -0.961881 2.166549 0.810943
H -0.961881 2.166549 -0.810943
