20
0 1
C -0.098070 0.348979 1.259968
C -0.098070 -1.185996 1.267816
C -0.754717 -1.751081 0.000000
C -0.098070 -1.185996 -1.267816
C -0.098070 0.348979 -1.259968
C 0.572139 0.912337 0.000000
H -0.702172 -2.845814 0.000000
H 0.936598 -1.550779 1.332692
H -0.612469 -1.556842 2.161453
H -1.127991 0.727243 1.297614
H 0.409701 0.733776 2.154033
H 0.936598 -1.550779 -1.332692
H -0.612469 -1.556842 -2.161453
H 0.409701 0.733776 -2.154033
H -1.127991 0.727243 -1.297614
H 1.623763 0.565121 0.000000
H -1.821927 -1.489562 0.000000
N 0.464117 2.375761 0.000000
H 0.944496 2.754907 0.811966
H 0.944496 2.754907 -0.811966
