20
0 1
C 1.209515 -0.946222 1.262917
C 0.973378 -0.090169 -0.000008
H 1.045266 -0.361059 2.173774
H 0.543218 -1.811412 1.287238
H 2.243717 -1.305638 1.278231
C 1.209429 -0.946568 -1.262690
C 1.909819 1.126037 -0.000209
H 1.045385 -0.361603 -2.173724
H 2.243561 -1.306208 -1.277875
H 0.542954 -1.811628 -1.286870
H 2.952319 0.792256 -0.000198
H 1.745324 1.750731 -0.881666
H 1.745385 1.750987 0.881080
C -0.475762 0.404853 -0.000001
O -0.827026 1.558383 0.000003
O -1.350202 -0.626325 0.000018
C -2.733762 -0.258148 -0.000016
H -2.976964 0.331339 -0.887786
H -3.291219 -1.195108 0.000451
H -2.976829 0.332185 0.887224
