26
0 1
C -0.163972 4.498849 0.000000
C -0.835556 3.122903 0.000000
H -0.903434 5.306009 0.000000
H 0.471078 4.629676 0.883453
H 0.471078 4.629676 -0.883453
C 0.163972 1.961424 0.000000
H -1.491484 3.035576 0.876581
H -1.491484 3.035576 -0.876581
C -0.499965 0.580577 0.000000
H 0.821037 2.049041 -0.876957
H 0.821037 2.049041 0.876957
H -1.156926 0.493957 0.877005
H -1.156926 0.493957 -0.877005
C 0.499965 -0.580577 0.000000
C -0.163972 -1.961424 0.000000
H 1.156926 -0.493957 0.877005
H 1.156926 -0.493957 -0.877005
C 0.835556 -3.122903 0.000000
H -0.821037 -2.049041 0.876957
H -0.821037 -2.049041 -0.876957
C 0.163972 -4.498849 0.000000
H 1.491484 -3.035576 -0.876581
H 1.491484 -3.035576 0.876581
H 0.903434 -5.306009 0.000000
H -0.471078 -4.629676 0.883453
H -0.471078 -4.629676 -0.883453
