13
0 1
C -1.100499 -0.513787 0.201859
O 0.043575 -1.209132 -0.264404
C 1.170173 -0.416401 0.086166
C 0.709744 1.064835 0.031303
C -0.827978 0.960499 -0.128869
H -1.976689 -0.930624 -0.301514
H -1.226841 -0.652677 1.289669
H 1.517742 -0.674673 1.098988
H 1.973000 -0.652454 -0.617603
H 0.987527 1.593825 0.946636
H 1.163933 1.600868 -0.805068
H -1.373566 1.647852 0.522289
H -1.122349 1.170066 -1.160913
