12
0 1
C -0.542839 1.885222 0.000000
H -1.064860 2.284749 0.878754
H 0.474953 2.286585 0.000000
H -1.064860 2.284749 -0.878754
C -0.542839 0.385142 0.000000
C 0.542839 -0.385142 0.000000
H -1.523247 -0.092513 0.000000
H 1.523247 0.092513 0.000000
C 0.542839 -1.885222 0.000000
H 1.064860 -2.284749 -0.878754
H 1.064860 -2.284749 0.878754
H -0.474953 -2.286585 0.000000
