8
0 1
C 2.630513912 1.107716378 0.269968222
O 1.926895547 0.134401890 0.030180620
O 2.158087578 2.310151766 0.557746693
H 1.164299038 2.277253532 0.543346189
C 4.127226360 1.061813632 0.268003827
H 4.464805924 0.060494439 0.030478332
H 4.508724905 1.772166571 -0.461465071
H 4.498742671 1.364508149 1.244059188
