12
0 1
N -0.287522703 0.707122355 2.884899047
H -0.660830096 1.608883785 2.622006076
C 1.104623979 0.634135449 3.016912386
O 1.795534298 1.628559141 2.872078321
C 1.583524093 -0.699942260 3.335022588
H 2.640576187 -0.852158199 3.469143724
C 0.703814866 -1.714323436 3.461239113
H 1.009742387 -2.722744045 3.697763474
N -0.641431021 -1.529291516 3.291146970
H -1.290178852 -2.291850459 3.390016141
C -1.215879330 -0.304490488 2.991732354
O -2.413667742 -0.153667213 2.849620162
