12
0 1
C 0.115547135 0.090530573 3.721571936
H 0.237673542 0.316014029 2.671145502
C -0.975534433 -0.664368038 4.148908205
H -1.696038962 -1.020882295 3.425213784
C -1.136234414 -0.958493361 5.501858272
H -1.983342001 -1.544461925 5.832105813
C -0.204351853 -0.497439981 6.430352350
H -0.328245349 -0.725406142 7.480359849
C 0.887233246 0.257662073 6.005112066
H 1.610352331 0.615495253 6.725494720
C 1.046037140 0.551147092 4.651620749
H 1.893295058 1.137221887 4.321573424
