9
0 1
C 0.037987714 0.192313939 3.920171740
O 0.064899981 1.377387420 3.628330554
N 1.170567986 -0.559563708 4.022991685
H 2.041508239 -0.136983189 3.754329430
H 1.131630022 -1.551450372 4.154414609
C -1.252233266 -0.546623549 4.184625569
H -1.104983262 -1.507344909 4.671749935
H -1.758460791 -0.704932479 3.233812222
H -1.890177214 0.080612882 4.799897422
