17
0 1
C 2.533558212 0.300721886 4.233277785
H 2.568142699 0.900528584 3.323952237
H 2.564061523 0.983928463 5.082022606
H 3.434238903 -0.310775420 4.263486725
C 1.271732010 -0.551165385 4.272582037
H 1.266288300 -1.160893098 5.179078997
H 1.270601498 -1.250519129 3.433000975
C -0.000042980 0.284933715 4.226965597
H -0.000197907 0.987243693 5.065950071
H 0.000033916 0.893710134 3.317895962
C -1.271803819 -0.551208264 4.272237135
H -1.266421579 -1.161317713 5.178487238
H -1.270697479 -1.250231156 3.432373482
C -2.533523049 0.300838045 4.233259429
H -2.567716351 0.901371713 3.324382671
H -3.434325025 -0.310460310 4.262772611
H -2.564062583 0.983424285 5.082520819
