15
0 1
C 1.048094381 -0.858808646 4.118748649
H 1.501946890 -0.950864885 3.130766095
H 1.592596881 -1.522788913 4.787946321
C 1.102407852 0.607143356 4.551684631
H 2.060697843 1.080042290 4.340960342
H 0.914292566 0.688780898 5.624907763
C -0.064943731 1.219957833 3.780913430
H 0.209360545 1.308739436 2.727441808
H -0.349358155 2.211098958 4.132547444
C -1.181888223 0.182385924 3.951941744
H -1.907427502 0.205999778 3.140569832
H -1.725973853 0.387083080 4.874190360
C -0.458851878 -1.184161907 4.055598631
H -0.701516424 -1.828318032 3.212238957
H -0.773958105 -1.711564321 4.954685051
