13
0 1
N    0.98906100    1.19433700    3.68357400
C    1.21766400   -0.19256700    3.58653800
N    0.13239100   -1.00651200    3.52958300
C   -1.11096200   -0.50261500    3.56482500
C   -1.35244900    0.91938000    3.66431200
C   -0.26355600    1.72955300    3.72100500
H    1.81520000    1.77660900    3.72432500
O    2.38881600   -0.59351500    3.55848800
N   -2.13042500   -1.36536700    3.50445300
H   -1.95607500   -2.39072700    3.43269500
H   -3.07813600   -1.02263700    3.52841800
H   -2.35981700    1.32598500    3.69275400
H   -0.33218900    2.81397400    3.79687900
