13
a-c nucleobase complex at 0.0 slide (A) and 0.4 shift (A)  Monomer B
N    1.38906100    1.19725800    3.40005800
C    1.61766400   -0.19303700    3.40000400
N    0.53239100   -1.00897200    3.39996500
C   -0.71096200   -0.50384400    3.39997100
C   -0.95244900    0.92162700    3.40002300
C    0.13644400    1.73378100    3.40006300
H    2.21520000    1.78095400    3.40009200
O    2.78881600   -0.59496500    3.39999100
N   -1.73042500   -1.36870600    3.39992900
H   -1.55607500   -2.39657400    3.39987100
H   -2.67813600   -1.02513900    3.39992800
H   -1.95981700    1.32922500    3.40003200
H    0.06781100    2.82085300    3.40010600
