13
0 1
N   -0.54232500    1.45518100    3.40005800
C    0.77600700    0.95800900    3.40000400
N    0.93999100   -0.38983200    3.39996500
C   -0.11913900   -1.21404300    3.39997100
C   -1.47437700   -0.71044200    3.40002300
C   -1.63327600    0.63864400    3.40006300
H   -0.63475100    2.46248600    3.40009200
O    1.70966300    1.77129300    3.39999100
N    0.12012200   -2.52935500    3.39992900
H    1.09745600   -2.89229800    3.39987100
H   -0.65127200   -3.17831300    3.39992800
H   -2.33105100   -1.37904900    3.40003200
H   -2.60902500    1.12274200    3.40010600
