13
a-c nucleobase complex at 0.0 slide (A) and -2.0 shift (A)  Monomer B
N   -1.01093900    1.19725800    3.40005800
C   -0.78233600   -0.19303700    3.40000400
N   -1.86760900   -1.00897200    3.39996500
C   -3.11096200   -0.50384400    3.39997100
C   -3.35244900    0.92162700    3.40002300
C   -2.26355600    1.73378100    3.40006300
H   -0.18480000    1.78095400    3.40009200
O    0.38881600   -0.59496500    3.39999100
N   -4.13042500   -1.36870600    3.39992900
H   -3.95607500   -2.39657400    3.39987100
H   -5.07813600   -1.02513900    3.39992800
H   -4.35981700    1.32922500    3.40003200
H   -2.33218900    2.82085300    3.40010600
