28
0 1
N   -0.21438600   -1.99302100    0.00015800
C   -1.48345800   -1.53764900    0.00003900
N   -1.89698700   -0.26976500   -0.00012600
C   -0.85909200    0.58333200   -0.00013000
C    0.50235100    0.25822400    0.00002500
C    0.81898700   -1.12041500    0.00016900
N    1.29302500    1.39536200   -0.00001800
C    0.43088400    2.38552800   -0.00019100
N   -0.88463000    1.96029900   -0.00026800
H   -2.24733500   -2.31700400    0.00005500
N    2.07815300   -1.59027900    0.00031300
H    2.83933700   -0.92853500    0.00035400
H    2.25762500   -2.59922600    0.00050700
H    0.68642800    3.44046900   -0.00027200
H   -1.71509300    2.53583600   -0.00040800
N   -0.54232500    1.45518100    3.40005800
C    0.77600700    0.95800900    3.40000400
N    0.93999100   -0.38983200    3.39996500
C   -0.11913900   -1.21404300    3.39997100
C   -1.47437700   -0.71044200    3.40002300
C   -1.63327600    0.63864400    3.40006300
H   -0.63475100    2.46248600    3.40009200
O    1.70966300    1.77129300    3.39999100
N    0.12012200   -2.52935500    3.39992900
H    1.09745600   -2.89229800    3.39987100
H   -0.65127200   -3.17831300    3.39992800
H   -2.33105100   -1.37904900    3.40003200
H   -2.60902500    1.12274200    3.40010600
