13
0 1
N    0.98906100    1.19434600    3.51654100
C    1.21766400   -0.19256600    3.61347000
N    0.13239100   -1.00651700    3.67034700
C   -1.11096200   -0.50261900    3.63511700
C   -1.35244900    0.91938400    3.53573300
C   -0.26355600    1.72956200    3.47912000
H    1.81520000    1.77662200    3.47585900
O    2.38881600   -0.59351600    3.64149400
N   -2.13042500   -1.36537700    3.69540500
H   -1.95607500   -2.39074500    3.76704800
H   -3.07813600   -1.02264700    3.67143800
H   -2.35981700    1.32598900    3.50731000
H   -0.33218900    2.81398900    3.40333300
