13
a-c nucleobase complex at 0.0 tilt (deg) and -4.0 roll (deg)  Monomer B
N    0.98664800    1.19725800    3.66905100
C    1.21469800   -0.19303700    3.68494400
N    0.13207100   -1.00897200    3.60920000
C   -1.10825400   -0.50384400    3.52247400
C   -1.34915600    0.92162700    3.50568100
C   -0.26291800    1.73378100    3.58167800
H    1.81077200    1.78095400    3.72671400
O    2.38299800   -0.59496500    3.76662600
N   -2.12523000   -1.36870600    3.45131800
H   -1.95130100   -2.39657400    3.46342200
H   -3.07063300   -1.02513900    3.38520800
H   -2.35407100    1.32922500    3.43541900
H   -0.33138700    2.82085300    3.57693300
