13
a-c nucleobase complex at 0.8 slide (A) and 0.0 shift (A)  Monomer B
N    0.98906100    1.99725800    3.40005800
C    1.21766400    0.60696300    3.40000400
N    0.13239100   -0.20897200    3.39996500
C   -1.11096200    0.29615600    3.39997100
C   -1.35244900    1.72162700    3.40002300
C   -0.26355600    2.53378100    3.40006300
H    1.81520000    2.58095400    3.40009200
O    2.38881600    0.20503500    3.39999100
N   -2.13042500   -0.56870600    3.39992900
H   -1.95607500   -1.59657400    3.39987100
H   -3.07813600   -0.22513900    3.39992800
H   -2.35981700    2.12922500    3.40003200
H   -0.33218900    3.62085300    3.40010600
