13
0 1
N    0.98906100    1.17108300    3.84898100
C    1.21766400   -0.18882000    3.55986900
N    0.13239100   -0.98691600    3.39018900
C   -1.11096200   -0.49282800    3.49521700
C   -1.35244900    0.90148200    3.79164000
C   -0.26355600    1.69588100    3.96053500
H    1.81520000    1.74201700    3.97037100
O    2.38881600   -0.58196200    3.47629100
N   -2.13042500   -1.33878200    3.31536100
H   -1.95607500   -2.34417600    3.10159800
H   -3.07813600   -1.00272200    3.38679100
H   -2.35981700    1.30017200    3.87639300
H   -0.33218900    2.75918900    4.18659200
