13
a-c nucleobase complex at -8.0 tilt (deg) and 0.0 roll (deg)  Monomer B
N    0.98906100    1.18561400    3.43343100
C    1.21766400   -0.19115800    3.62687000
N    0.13239100   -0.99915800    3.74038700
C   -1.11096200   -0.49894500    3.67009300
C   -1.35244900    0.91266100    3.47175700
C   -0.26355600    1.71691700    3.35876700
H    1.81520000    1.76363500    3.35223000
O    2.38881600   -0.58917600    3.68279400
N   -2.13042500   -1.35539600    3.79041700
H   -1.95607500   -2.37326900    3.93341100
H   -3.07813600   -1.01517200    3.74260000
H   -2.35981700    1.31629400    3.41503900
H   -0.33218900    2.79341500    3.20751800
