28
a-c nucleobase complex at 0.0 tilt (deg) and 8.0 roll (deg)  Dimer
N   -0.21438600   -1.99302100    0.00015800
C   -1.48345800   -1.53764900    0.00003900
N   -1.89698700   -0.26976500   -0.00012600
C   -0.85909200    0.58333200   -0.00013000
C    0.50235100    0.25822400    0.00002500
C    0.81898700   -1.12041500    0.00016900
N    1.29302500    1.39536200   -0.00001800
C    0.43088400    2.38552800   -0.00019100
N   -0.88463000    1.96029900   -0.00026800
H   -2.24733500   -2.31700400    0.00005500
N    2.07815300   -1.59027900    0.00031300
H    2.83933700   -0.92853500    0.00035400
H    2.25762500   -2.59922600    0.00050700
H    0.68642800    3.44046900   -0.00027200
H   -1.71509300    2.53583600   -0.00040800
N    0.97944400    1.19725800    3.46240700
C    1.20581400   -0.19303700    3.43053800
N    0.13109800   -1.00897200    3.58154000
C   -1.10015400   -0.50384400    3.75458700
C   -1.33928400    0.92162700    3.78824700
C   -0.26098200    1.73378100    3.63674200
H    1.79754700    1.78095400    3.34746400
O    2.36556700   -0.59496500    3.26753200
N   -2.10970200   -1.36870600    3.89642800
H   -1.93705700   -2.39657400    3.87210500
H   -3.04819000   -1.02513900    4.02832200
H   -2.33684700    1.32922500    3.92845500
H   -0.32894100    2.82085300    3.64633700
