13
0 1
N    0.98906100    1.19725800    3.00005800
C    1.21766400   -0.19303700    3.00000400
N    0.13239100   -1.00897200    2.99996500
C   -1.11096200   -0.50384400    2.99997100
C   -1.35244900    0.92162700    3.00002300
C   -0.26355600    1.73378100    3.00006300
H    1.81520000    1.78095400    3.00009200
O    2.38881600   -0.59496500    2.99999100
N   -2.13042500   -1.36870600    2.99992900
H   -1.95607500   -2.39657400    2.99987100
H   -3.07813600   -1.02513900    2.99992800
H   -2.35981700    1.32922500    3.00003200
H   -0.33218900    2.82085300    3.00010600
