13
0 1
N   -1.53138600    0.25792300    3.40005800
C   -0.44165700    1.15104600    3.40000400
N    0.80760000    0.61914000    3.39996500
C    0.99182300   -0.71019900    3.39997100
C   -0.12192800   -1.63206900    3.40002300
C   -1.36972000   -1.09513700    3.40006300
H   -2.44995100    0.68153200    3.40009200
O   -0.67915300    2.36625800    3.39999100
N    2.25054700   -1.16064900    3.39992900
H    3.05353100   -0.49572400    3.39987100
H    2.42686400   -2.15317400    3.39992800
H    0.02876600   -2.70827400    3.40003200
H   -2.27683600   -1.69811100    3.40010600
