98
0 1
C    -0.7353723    2.3232573    0.5988007 
C     0.7353723   -2.3232573    0.5988007 
C    -0.1026914   -0.7739967   -5.4023440 
C     0.1026914    0.7739967   -5.4023440 
C    -0.5458070    3.8834069    0.5121471 
C     0.5458070   -3.8834069    0.5121471 
C     0.5242765   -1.3879473   -6.6581371 
C    -0.5242765    1.3879473   -6.6581371 
C    -1.6628660   -1.6707193   -3.0632597 
C     1.6628660    1.6707193   -3.0632597 
C    -0.0769778   -0.7631776   -7.9238624 
C     0.0769778    0.7631776   -7.9238624 
C     1.8926886    1.7567646    5.0267661 
C    -1.8926886   -1.7567646    5.0267661 
C     4.4152461   -1.4236292    3.9916992 
C    -4.4152461    1.4236292    3.9916992 
C    -1.6829243    1.7918244    2.6568497 
C     1.6829243   -1.7918244    2.6568497 
C    -2.1935179    2.0102282    0.4940337 
C     2.1935179   -2.0102282    0.4940337 
C     0.4647060   -1.8812746    2.0195227 
C    -0.4647060    1.8812746    2.0195227 
C    -0.6123052    1.7194958    4.7859433 
C     0.6123052   -1.7194958    4.7859433 
C     0.5959672   -1.7313399   -1.8462849 
C    -0.5959672    1.7313399   -1.8462849 
C     0.7224854    1.8406431    2.7767612 
C    -0.7224854   -1.8406431    2.7767612 
C    -0.0684608   -1.7695100   -0.5638743 
C     0.0684608    1.7695100   -0.5638743 
C     1.8486182   -1.6908959    4.0455832 
C    -1.8486182    1.6908959    4.0455832 
N    -0.4722466    1.3335785   -4.1893364 
N     0.4722466   -1.3335785   -4.1893364 
C     0.6531586    1.7708093    4.1752646 
C    -0.6531586   -1.7708093    4.1752646 
C     0.1653569    1.5493161   -3.0343180 
C    -0.1653569   -1.5493161   -3.0343180 
C     2.0715474   -1.7525711   -1.8982574 
C    -2.0715474    1.7525711   -1.8982574 
C     2.8425464   -1.8276757   -0.6665727 
C    -2.8425464    1.8276757   -0.6665727 
C    -3.1149158    1.5638247    4.7463857 
C     3.1149158   -1.5638247    4.7463857 
O     2.7483585   -1.8928235    1.7388505 
O    -2.7483585    1.8928235    1.7388505 
O     0.6442749   -1.6680727    6.1231756 
O    -0.6442749    1.6680727    6.1231756 
O    -1.9280702   -1.8814639    2.1725060 
O     1.9280702    1.8814639    2.1725060 
O    -3.1496174    1.5471582    5.9994524 
O     3.1496174   -1.5471582    5.9994524 
O     2.7024020   -1.6148091   -2.9844179 
O    -2.7024020    1.6148091   -2.9844179 
O    -1.2621366   -1.4575453   -0.3616840 
O     1.2621366    1.4575453   -0.3616840 
H    -1.6315120    1.6240116    6.3652682 
H     1.6315120   -1.6240116    6.3652682 
H    -1.5120544    1.3563109   -4.0672738 
H     1.5120544   -1.3563109   -4.0672738 
H     1.7787729    1.7368981    1.1873971 
H    -1.7787729   -1.7368981    1.1873971 
H    -1.1805184   -0.9602340   -5.4074506 
H     1.1805184    0.9602340   -5.4074506 
H     3.9074723   -1.6383826   -0.7306408 
H    -3.9074723    1.6383826   -0.7306408 
H    -1.6096924    1.2193492   -6.6343759 
H     1.6096924   -1.2193492   -6.6343759 
H     0.3672013   -2.4716736   -6.6436107 
H    -0.3672013    2.4716736   -6.6436107 
H    -1.1436066   -1.0207461   -7.9810817 
H     1.1436066    1.0207461   -7.9810817 
H    -2.0036744   -2.3238335   -2.2630631 
H     2.0036744    2.3238335   -2.2630631 
H     0.4002850   -1.1931121   -8.8109310 
H    -0.4002850    1.1931121   -8.8109310 
H    -2.1518042   -0.7041623   -2.9130320 
H     2.1518042    0.7041623   -2.9130320 
H    -2.7702896   -1.5397646    4.4162275 
H     2.7702896    1.5397646    4.4162275 
H    -1.9825344   -2.0739103   -4.0279329 
H     1.9825344    2.0739103   -4.0279329 
H    -1.8057966   -1.0143780    5.8234393 
H     1.8057966    1.0143780    5.8234393 
H     5.2126857   -1.2436161    4.7138521 
H    -5.2126857    1.2436161    4.7138521 
H     1.1596911   -4.3617569    1.2790514 
H    -1.1596911    4.3617569    1.2790514 
H    -4.3598454    0.6009191    3.2723604 
H     4.3598454   -0.6009191    3.2723604 
H    -0.5051656   -4.1222790    0.6949533 
H     0.5051656    4.1222790    0.6949533 
H    -0.8423109    4.2467784   -0.4755430 
H     0.8423109   -4.2467784   -0.4755430 
H     4.6301904   -2.3325248    3.4203055 
H    -4.6301904    2.3325248    3.4203055 
H     2.0443495    2.7295811    5.5106875 
H    -2.0443495   -2.7295811    5.5106875 
