96
0 1
C    -8.6334441    1.4130309    0.0000000 
C    -8.6956736    0.6920681   -1.2134986 
C    -8.6956736   -0.6920681   -1.2134986 
C    -8.6334441   -1.4130309    0.0000000 
C    -8.6956736   -0.6920681    1.2134986 
C    -8.6956736    0.6920681    1.2134986 
C    -8.3497651    2.7981143    0.0000000 
C    -7.8827412    3.9256099    0.0000000 
C    -8.3497651   -2.7981143    0.0000000 
C    -7.8827412   -3.9256099    0.0000000 
C    -7.1039306   -5.1056031    0.0000000 
C    -6.6381358   -5.6594037   -1.2134986 
C    -5.6594037   -6.6381358   -1.2134986 
C    -5.1056031   -7.1039306    0.0000000 
C    -5.6594037   -6.6381358    1.2134986 
C    -6.6381358   -5.6594037    1.2134986 
C    -7.1039306    5.1056031    0.0000000 
C    -6.6381358    5.6594037   -1.2134986 
C    -5.6594037    6.6381358   -1.2134986 
C    -5.1056031    7.1039306    0.0000000 
C    -5.6594037    6.6381358    1.2134986 
C    -6.6381358    5.6594037    1.2134986 
C    -3.9256099   -7.8827412    0.0000000 
C    -2.7981143   -8.3497651    0.0000000 
C    -1.4130309   -8.6334441    0.0000000 
C    -0.6920681   -8.6956736   -1.2134986 
C     0.6920681   -8.6956736   -1.2134986 
C     1.4130309   -8.6334441    0.0000000 
C     0.6920681   -8.6956736    1.2134986 
C    -0.6920681   -8.6956736    1.2134986 
C     7.1039306   -5.1056031    0.0000000 
C     6.6381358   -5.6594037    1.2134986 
C     5.6594037   -6.6381358    1.2134986 
C     5.1056031   -7.1039306    0.0000000 
C     5.6594037   -6.6381358   -1.2134986 
C     6.6381358   -5.6594037   -1.2134986 
C     3.9256099   -7.8827412    0.0000000 
C     2.7981143   -8.3497651    0.0000000 
C     8.6956736    0.6920681   -1.2134986 
C     8.6956736   -0.6920681   -1.2134986 
C     8.6334441   -1.4130309    0.0000000 
C     8.6956736   -0.6920681    1.2134986 
C     8.6956736    0.6920681    1.2134986 
C     7.8827412   -3.9256099    0.0000000 
C     8.3497651   -2.7981143    0.0000000 
C     8.6334441    1.4130309    0.0000000 
C    -3.9256099    7.8827412    0.0000000 
C    -2.7981143    8.3497651    0.0000000 
C    -1.4130309    8.6334441    0.0000000 
C    -0.6920681    8.6956736    1.2134986 
C     0.6920681    8.6956736    1.2134986 
C     1.4130309    8.6334441    0.0000000 
C     0.6920681    8.6956736   -1.2134986 
C    -0.6920681    8.6956736   -1.2134986 
C     2.7981143    8.3497651    0.0000000 
C     3.9256099    7.8827412    0.0000000 
C     5.1056031    7.1039306    0.0000000 
C     5.6594037    6.6381358    1.2134986 
C     6.6381358    5.6594037    1.2134986 
C     7.1039306    5.1056031    0.0000000 
C     6.6381358    5.6594037   -1.2134986 
C     5.6594037    6.6381358   -1.2134986 
C     7.8827412    3.9256099    0.0000000 
C     8.3497651    2.7981143    0.0000000 
H    -8.6819708    1.2372531   -2.1517726 
H    -8.6819708   -1.2372531   -2.1517726 
H    -8.6819708   -1.2372531    2.1517726 
H    -8.6819708    1.2372531    2.1517726 
H    -7.0139505   -5.2642104   -2.1517726 
H    -5.2642104   -7.0139505   -2.1517726 
H    -5.2642104   -7.0139505    2.1517726 
H    -7.0139505   -5.2642104    2.1517726 
H    -7.0139505    5.2642104   -2.1517726 
H    -5.2642104    7.0139505   -2.1517726 
H    -5.2642104    7.0139505    2.1517726 
H    -7.0139505    5.2642104    2.1517726 
H    -1.2372531   -8.6819708   -2.1517726 
H     1.2372531   -8.6819708   -2.1517726 
H     1.2372531   -8.6819708    2.1517726 
H    -1.2372531   -8.6819708    2.1517726 
H     7.0139505   -5.2642104    2.1517726 
H     5.2642104   -7.0139505    2.1517726 
H     5.2642104   -7.0139505   -2.1517726 
H     7.0139505   -5.2642104   -2.1517726 
H     8.6819708    1.2372531   -2.1517726 
H     8.6819708   -1.2372531   -2.1517726 
H     8.6819708   -1.2372531    2.1517726 
H     8.6819708    1.2372531    2.1517726 
H    -1.2372531    8.6819708    2.1517726 
H     1.2372531    8.6819708    2.1517726 
H     1.2372531    8.6819708   -2.1517726 
H    -1.2372531    8.6819708   -2.1517726 
H     5.2642104    7.0139505    2.1517726 
H     7.0139505    5.2642104    2.1517726 
H     7.0139505    5.2642104   -2.1517726 
H     5.2642104    7.0139505   -2.1517726 
