60
0 1
C     1.2359190    0.0000000   -3.3277632 
C     0.3819200    1.1754288   -3.3277632 
C    -0.9998794    0.7264549   -3.3277632 
C    -0.9998794   -0.7264549   -3.3277632 
C    -1.9608324    1.4246281   -2.5936605 
C     0.7489713    2.3050967   -2.5936605 
C     0.3819200   -1.1754288   -3.3277632 
C     2.4237222    0.0000000   -2.5936605 
C     0.7489713   -2.3050967   -2.5936605 
C    -1.9608324   -1.4246281   -2.5936605 
C    -2.9607119    0.6981732   -1.8298206 
C    -1.5789124    2.6000569   -1.8298206 
C    -2.9607119   -0.6981732   -1.8298206 
C    -1.5789124   -2.6000569   -1.8298206 
C    -0.2509081   -3.0315517   -1.8298206 
C     1.9848903   -2.3050967   -1.8298206 
C     2.8056421   -1.1754288   -1.8298206 
C     2.8056421    1.1754288   -1.8298206 
C     1.9848903    2.3050967   -1.8298206 
C    -0.2509081    3.0315517   -1.8298206 
C    -3.1967514    1.4246281   -0.5939016 
C    -2.3427524    2.6000569   -0.5939016 
C     1.7488508    3.0315517   -0.5939016 
C     0.3670514    3.4805255   -0.5939016 
C     3.4236016   -0.7264549   -0.5939016 
C     3.4236016    0.7264549   -0.5939016 
C     1.7488508   -3.0315517   -0.5939016 
C     0.3670514   -3.4805255   -0.5939016 
C    -2.3427524   -2.6000569   -0.5939016 
C    -3.1967514   -1.4246281   -0.5939016 
C    -3.4236016   -0.7264549    0.5939016 
C    -3.4236016    0.7264549    0.5939016 
C    -1.7488508    3.0315517    0.5939016 
C    -0.3670514    3.4805255    0.5939016 
C     3.1967514    1.4246281    0.5939016 
C     2.3427524    2.6000569    0.5939016 
C     2.3427524   -2.6000569    0.5939016 
C     3.1967514   -1.4246281    0.5939016 
C    -0.3670514   -3.4805255    0.5939016 
C    -1.7488508   -3.0315517    0.5939016 
C    -2.8056421    1.1754288    1.8298206 
C    -1.9848903    2.3050967    1.8298206 
C     0.2509081    3.0315517    1.8298206 
C     1.5789124    2.6000569    1.8298206 
C     2.9607119    0.6981732    1.8298206 
C     2.9607119   -0.6981732    1.8298206 
C     1.5789124   -2.6000569    1.8298206 
C     0.2509081   -3.0315517    1.8298206 
C    -1.9848903   -2.3050967    1.8298206 
C    -2.8056421   -1.1754288    1.8298206 
C    -0.7489713   -2.3050967    2.5936605 
C    -2.4237222    0.0000000    2.5936605 
C    -0.7489713    2.3050967    2.5936605 
C     1.9608324    1.4246281    2.5936605 
C     1.9608324   -1.4246281    2.5936605 
C     0.9998794   -0.7264549    3.3277632 
C    -0.3819200   -1.1754288    3.3277632 
C    -1.2359190    0.0000000    3.3277632 
C    -0.3819200    1.1754288    3.3277632 
C     0.9998794    0.7264549    3.3277632 
