150
0 1
C     0.7789318   -0.9887569   -4.7388765 
C     1.2130772    1.2530004   -4.5630776 
C    -0.4406456   -0.2920022   -4.9102147 
C    -0.1732362    1.0927591   -4.8012773 
C     1.8004621   -0.0339814   -4.5192696 
C    -1.6808093   -0.8762119   -4.7037285 
C    -1.1433420    2.0269585   -4.4695420 
C     0.8827633   -2.3145983   -4.3463200 
C     1.7584508    2.3874294   -3.9812888 
C     3.0033570   -0.3002067   -3.8822192 
C     3.1095323    2.1800234   -3.4804959 
C     2.2269941   -2.6812689   -3.9384748 
C    -2.4910261    1.4852597   -4.5061381 
C    -2.7507794    0.0954437   -4.5324436 
C    -1.6114972   -2.3194706   -4.5604415 
C    -0.5857805    3.2942536   -4.0195415 
C    -0.3996957   -2.9998575   -4.2987636 
C     0.8083149    3.4811985   -3.8720584 
C     3.2499783   -4.5513688   -2.2508880 
C     4.8577456    2.7602957   -1.3893441 
C     3.2169982   -1.7196492   -3.6323669 
C     3.7221755    0.9054746   -3.5057158 
C     4.1665151   -3.5957116   -1.8026511 
C     5.5117559    1.5358078   -1.5508319 
C    -4.7784296    2.0684558   -3.1704983 
C    -5.0192421    0.6977774   -3.0445204 
C    -3.1393045   -4.1270750   -3.2482389 
C    -0.8367398    5.3472893   -2.1575949 
C    -1.9666951   -4.7596046   -2.8261620 
C     0.5402465    5.5854543   -2.1765046 
C    -1.9582873   -5.4824905   -1.6284833 
C     1.1712425    6.1836250   -1.0829281 
C    -1.5943693    5.7283579   -1.0454178 
C    -4.2977188   -4.1881698   -2.4703911 
C    -5.7818712    0.2197012   -1.9733655 
C    -5.2726526    2.9647391   -2.2195099 
C     2.8598753   -5.6043487   -1.4198231 
C     4.9315791    3.4328468   -0.1649912 
C     4.7191045   -3.7096970   -0.5227217 
C     6.2185212    0.9647732   -0.4894722 
C     5.6826280    2.8897489    0.8763709 
C     3.4379473   -5.7300729   -0.1567197 
C     4.3701148   -4.7899251    0.2865194 
C     6.3174688    1.6563653    0.7176702 
C    -6.3156744    1.1186649   -1.0519101 
C    -6.0565536    2.4861354   -1.1703742 
C    -0.9721551    6.3676320    0.0253390 
C    -4.2907329   -4.9308177   -1.2903385 
C    -3.1262135   -5.5806937   -0.8746087 
C     0.4066062    6.5914118    0.0091513 
S     3.9953053    3.5225497   -2.7345830 
S     2.6572046   -4.3971018   -3.9066772 
S    -4.4147099   -0.4508326   -4.2501300 
S    -3.8601593    2.6045650   -4.5814261 
S    -0.4893085   -4.7003522   -3.8031857 
S     1.4226977    5.1252023   -3.6345377 
S    -3.0863482   -3.2705206   -4.7917129 
S    -1.6609121    4.6227484   -3.5486020 
S     4.7091214   -2.2755000   -2.8523021 
S     5.4508993    0.7831267   -3.1470884 
H     5.4137423   -2.9542325   -0.1685636 
H     6.6961161   -0.0009229   -0.6220050 
H    -1.0392987   -5.9511539   -1.2903583 
H     2.2458736    6.3353932   -1.1022964 
H    -5.0514732    4.0230521   -2.3154601 
H    -5.9436583   -0.8481932   -1.8636865 
H    -5.1905765   -3.6651553   -2.7980760 
H    -2.6587340    5.5158235   -1.0216388 
H     4.4018970    4.3715791   -0.0353337 
H     2.1247656   -6.3206039   -1.7731398 
H     4.8058268   -4.8796301    1.2769180 
H     6.8804017    1.2250012    1.5398111 
H     5.7454337    3.4167931    1.8234738 
H     3.1519602   -6.5571736    0.4859761 
H    -6.4554783    3.1803575   -0.4369534 
H    -6.9108496    0.7470879   -0.2234643 
H    -5.1920213   -4.9928200   -0.6879576 
H    -1.5619931    6.6675568    0.8859829 
H     0.8892029    7.0709980    0.8553586 
H    -3.1186926   -6.1432897    0.0537566 
C     2.6408293   -1.7845423    0.9313757 
C    -0.4026688    3.3814203    1.2623773 
C     2.8566465   -1.8194695    3.3345155 
C    -0.1935216    3.3541321    3.6660651 
C    -3.5895180   -0.5157892    3.9133673 
C    -2.1559124   -2.9468717    3.7573165 
C    -2.3661820   -2.9155181    1.3535253 
C    -3.8006595   -0.4854014    1.5089971 
C     1.9084700   -2.8991466    3.4032066 
C    -1.5924178    3.0394302    3.7846882 
C     1.6938134   -2.8646825    0.9999754 
C    -1.8017343    3.0671872    1.3807695 
C    -3.4543964    0.9163968    3.9199150 
C    -1.0501691   -3.4846805    1.2316496 
C    -3.6647681    0.9475486    1.5155805 
C    -0.8410315   -3.5170453    3.6354248 
C     2.1771114    2.2621217    1.0239985 
C     2.9028802    1.0232805    0.9461397 
C     3.1217911    0.9970801    3.3471227 
C     2.3931590    2.2352230    3.4266557 
C     2.3767223   -1.0354893   -0.2769138 
C     0.0538323    2.9040631   -0.0238204 
C     2.8025594   -1.0982082    4.5876816 
C     0.4793175    2.8426009    4.8402413 
C    -3.1275841    1.3495771    0.2341718 
C    -2.7019594    1.2873738    5.0981867 
C    -0.5104364   -3.0877680   -0.0500754 
C    -0.0856975   -3.1509070    4.8135383 
C    -3.3466130   -0.9696289    0.2233939 
C    -2.9203852   -1.0309957    5.0876578 
C    -2.6412307   -2.1673881    0.1462007 
C    -2.2146456   -2.2280094    5.0109357 
C    -1.7849745    2.3322121    5.0313179 
C    -2.2111917    2.3946455    0.1670464 
C     1.2674718   -2.8462783    4.6990569 
C     0.8426453   -2.7861453   -0.1663574 
C     1.7521839    2.2914848    4.7222650 
C     2.5068036    0.3491507   -0.2689556 
C     2.9329594    0.2877684    4.5938345 
C     1.3261559    2.3544330   -0.1420833 
C     1.2669968   -1.6574228   -0.9702852 
C    -1.0663643    2.2998931   -0.7149433 
C    -0.5047488    2.2169486    5.6994390 
C     1.8263989   -1.7378159    5.4458518 
C     2.0931813    1.0911737    5.4586186 
C     1.5316439    1.1728822   -0.9531128 
C    -0.9362805   -2.3602280    5.6791467 
C    -1.4979139   -2.2793171   -0.7348065 
C    -2.9373950    0.1654096   -0.5769738 
C    -2.3769672    0.0839490    5.8357090 
C     1.1440842    0.4789546    6.2825146 
C     0.4534095    0.5793751   -1.6122715 
C    -0.4035164   -1.2841783    6.3952765 
C    -1.1394791   -0.0356503    6.4753419 
C    -1.0945668   -1.1841054   -1.5014076 
C    -1.8306533    0.0645019   -1.4233032 
C    -0.1830897    1.0540694    6.4056461 
C     1.0078271   -0.9663263    6.2761007 
C    -0.8736500    1.1544806   -1.4905571 
C     0.3172367   -0.8661013   -1.6208626 
C    -3.6233711   -1.2465792    2.6956556 
C    -2.8780305   -2.5093761    2.6143970 
C     3.2635204    0.3052826    2.1147627 
C     1.7908098    2.8104509    2.2750925 
C     0.4482450    3.3912600    2.3991773 
C     3.1276665   -1.1559940    2.1076421 
C    -3.3498577    1.6514279    2.7086418 
C    -0.2165633   -3.6625041    2.3676702 
C    -2.3820616    2.7537198    2.6384950 
C     1.2106654   -3.3406010    2.2467504 
