80
0 1
C    -0.0881387    1.4876318    1.1435013 
C    -0.0881387    1.4876318   -1.1435013 
C     1.2355253    1.2246018    0.7050847 
C     1.2355253    1.2246018   -0.7050847 
C    -0.9092788    1.6297405    0.0000000 
C     2.1791946    0.5730863    1.4774038 
C     2.1791946    0.5730863   -1.4774038 
C    -0.5547849    1.1397464    2.3953023 
C    -0.5547849    1.1397464   -2.3953023 
C    -2.2862158    1.4455885    0.0000000 
C    -1.9992594    1.0879394   -2.4736655 
C    -1.9992594    1.0879394    2.4736655 
C     3.2346482   -0.0483658   -0.7077161 
C     3.2346482   -0.0483658    0.7077161 
C     1.8155824    0.5012849    2.8913445 
C     1.8155824    0.5012849   -2.8913445 
C     0.5091431    0.7737010    3.3302496 
C     0.5091431    0.7737010   -3.3302496 
C    -3.9372917   -0.5415587    3.5475944 
C    -3.9372917   -0.5415587   -3.5475944 
C    -2.8322479    1.2740964    1.3436468 
C    -2.8322479    1.2740964   -1.3436468 
C    -4.7863842   -0.2693119    2.4727707 
C    -4.7863842   -0.2693119   -2.4727707 
C     4.3826480   -2.5292340   -0.6981627 
C     4.3826480   -2.5292340    0.6981627 
C     2.8049349    1.4586331    5.2461952 
C     2.8049349    1.4586331   -5.2461952 
C     1.5078379    1.7278493    5.6838014 
C     1.5078379    1.7278493   -5.6838014 
C     1.2769260    2.7388238    6.6219071 
C     1.2769260    2.7388238   -6.6219071 
C     3.8824700    2.1984326   -5.7433366 
C     3.8824700    2.1984326    5.7433366 
C     4.3400148   -3.7364203    1.4020195 
C     4.3400148   -3.7364203   -1.4020195 
C    -4.0658302   -1.7353084    4.2634147 
C    -4.0658302   -1.7353084   -4.2634147 
C    -5.7777523   -1.1857444    2.1107642 
C    -5.7777523   -1.1857444   -2.1107642 
C    -5.0780577   -2.6317914   -3.9224723 
C    -5.0780577   -2.6317914    3.9224723 
C    -5.9329778   -2.3562991    2.8521122 
C    -5.9329778   -2.3562991   -2.8521122 
C     4.3385258   -4.9401047    0.6986219 
C     4.3385258   -4.9401047   -0.6986219 
C     3.6557011    3.1769135   -6.7100113 
C     3.6557011    3.1769135    6.7100113 
C     2.3565626    3.4465313    7.1479730 
C     2.3565626    3.4465313   -7.1479730 
S    -2.7444515    0.6735741   -4.0298061 
S    -2.7444515    0.6735741    4.0298061 
S     4.4774570   -0.9867400    1.5635577 
S     4.4774570   -0.9867400   -1.5635577 
S     0.1580314    0.7542358    5.0748615 
S     0.1580314    0.7542358   -5.0748615 
S     3.0852974    0.1469665    4.0871214 
S     3.0852974    0.1469665   -4.0871214 
S    -4.5876654    1.2621566    1.6124018 
S    -4.5876654    1.2621566   -1.6124018 
H    -6.4237644   -0.9717415    1.2655042 
H    -6.4237644   -0.9717415   -1.2655042 
H     0.2608513    2.9562962    6.9370507 
H     0.2608513    2.9562962   -6.9370507 
H     4.3152175   -3.7242357   -2.4874174 
H     4.3152175   -3.7242357    2.4874174 
H     4.8851163    1.9975658    5.3780483 
H     4.8851163    1.9975658   -5.3780483 
H    -3.3853968   -1.9472272   -5.0825327 
H    -3.3853968   -1.9472272    5.0825327 
H    -6.7145527   -3.0614158    2.5850614 
H    -6.7145527   -3.0614158   -2.5850614 
H    -5.1927837   -3.5518500   -4.4876692 
H    -5.1927837   -3.5518500    4.4876692 
H     4.3226308   -5.8795292   -1.2430865 
H     4.3226308   -5.8795292    1.2430865 
H     4.4934476    3.7395645    7.1110741 
H     4.4934476    3.7395645   -7.1110741 
H     2.1813228    4.2195825   -7.8902222 
H     2.1813228    4.2195825    7.8902222 
