32
0 1
C     2.0932180    1.2323122   -0.0796717 
H     2.5347221    2.1512224    0.3212381 
H     2.1734127    1.2837917   -1.1864690 
C     2.8264633    0.0000000    0.4252567 
H     3.8607473    0.0000000    0.0623544 
H     2.8376068    0.0000000    1.5199922 
C     2.0932180   -1.2323122   -0.0796717 
H     2.1734127   -1.2837917   -1.1864690 
H     2.5347221   -2.1512224    0.3212381 
C     0.0206046   -2.4289361   -0.0796717 
H     0.5956522   -3.2707449    0.3212381 
H     0.0250899   -2.5241264   -1.1864690 
C    -1.4132317   -2.4477891    0.4252567 
H    -1.4188034   -2.4574396    1.5199922 
H    -1.9303737   -3.3435053    0.0623544 
C    -2.1138227   -1.1966239   -0.0796717 
H    -2.1985026   -1.2403347   -1.1864690 
H    -3.1303742   -1.1195225    0.3212381 
C    -2.1138227    1.1966239   -0.0796717 
H    -3.1303742    1.1195225    0.3212381 
H    -2.1985026    1.2403347   -1.1864690 
C    -1.4132317    2.4477891    0.4252567 
H    -1.9303737    3.3435053    0.0623544 
H    -1.4188034    2.4574396    1.5199922 
C     0.0206046    2.4289361   -0.0796717 
H     0.0250899    2.5241264   -1.1864690 
H     0.5956522    3.2707449    0.3212381 
C    -0.0000000    0.0000000   -0.1337485 
H    -0.0000000    0.0000000   -1.2671038 
N     0.6925861    1.1995943    0.3491525 
N     0.6925861   -1.1995943    0.3491525 
N    -1.3851722    0.0000000    0.3491525 
