144
0 1
C     2.7286841    1.8819712   -7.4059903 
C     2.8572652    0.7620115   -8.2241340 
C     2.5972004   -0.4991812   -7.6934257 
C     2.2425563   -0.5937000   -6.3454349 
N     2.1440619    0.4777947   -5.5448425 
C     2.3651952    1.6915666   -6.0707019 
C     1.8963480   -1.9445677   -5.7651949 
O     1.7907607   -2.9402731   -6.4819368 
C     2.1464870    2.8953429   -5.1865359 
O     2.1855879    4.0392024   -5.6405214 
N     1.7062706   -1.9229811   -4.4187865 
C     1.2193835   -2.9979157   -3.6251854 
C    -0.0715811   -3.5082036   -3.8305207 
C    -0.5546079   -4.4747476   -2.9391622 
C     0.1975911   -4.9351885   -1.8559633 
C     1.4905003   -4.4189955   -1.6983117 
C     2.0196074   -3.4656607   -2.5682869 
C    -0.3711257   -5.9298297   -0.8248514 
C    -1.6394212   -6.6395716   -1.3594008 
C    -2.1773408   -7.6967525   -0.3877132 
C    -1.1227439   -8.7685133   -0.0947438 
C     0.1666297   -8.1206080    0.4193153 
C     0.6729685   -7.0461570   -0.5511245 
H    -0.9069454   -9.3260699   -1.0174066 
H    -1.5045204   -9.4918897    0.6351049 
C    -0.6906053   -5.1082969    0.4411634 
C    -1.9046441   -4.4209266    0.5621224 
C    -2.2033715   -3.6229937    1.6700329 
C    -1.2357672   -3.4827856    2.6834162 
C    -0.0032877   -4.1545337    2.5953818 
C     0.2362189   -4.9603715    1.4770301 
C    -3.5311492   -2.9183107    1.7813478 
N    -1.4943485   -2.5797206    3.7494945 
C    -1.5154745   -2.9060683    5.0716577 
O    -1.4237262   -4.0501606    5.5170556 
C     1.0519776   -3.9963777    3.6554790 
C    -0.9400442   -3.0099938   -4.9536730 
C     3.4108497   -2.9207501   -2.3698678 
C    -1.6392719   -1.7133262    5.9876010 
N    -1.5571568   -0.4917390    5.4404639 
C    -1.5725758    0.5749230    6.2532654 
C    -1.7057344    0.4663577    7.6397255 
C    -1.8225722   -0.8045052    8.1974889 
C    -1.7758307   -1.9185319    7.3625820 
C    -1.3705009    1.9372844    5.6343734 
O    -1.1945680    2.9367055    6.3319221 
N     1.8867530    2.5786998   -3.8879310 
C     1.4734378    3.4924500   -2.8811252 
C     0.2716033    4.2075827   -3.0125657 
C    -0.1431291    5.0174046   -1.9470557 
C     0.5814088    5.1208433   -0.7579180 
C     1.7759802    4.3934982   -0.6625815 
C     2.2471223    3.5953247   -1.7071322 
C     0.0985091    5.9686208    0.4351308 
C    -1.0779260    6.8922453    0.0380538 
C    -1.5141174    7.8119498    1.1848590 
C    -0.3548011    8.6961786    1.6560684 
C     0.8536398    7.8355176    2.0387800 
C     1.2545861    6.9018475    0.8900356 
H    -0.0701821    9.3821508    0.8452995 
H    -0.6669634    9.3156377    2.5048839 
C    -0.3204661    4.9777244    1.5396975 
C    -1.6057846    4.4229059    1.5571354 
C    -1.9852919    3.4535938    2.4873538 
C    -1.0380656    3.0101256    3.4252935 
C     0.2548415    3.5584583    3.4561412 
C     0.5822759    4.5379500    2.5121758 
C    -3.3752728    2.8715270    2.4755814 
N    -1.3810795    1.9225555    4.2743451 
C     1.2830835    3.0884660    4.4489613 
C    -0.5778516    4.0914571   -4.2484852 
C     3.5512994    2.8485769   -1.5856707 
H    -1.6334933   -1.5946561    3.5043461 
H     1.8553240   -1.0315726   -3.9396966 
H    -2.6538352   -4.5007078   -0.2196569 
H     1.1931020   -5.4707528    1.4242127 
H    -1.5590076   -4.8510967   -3.1041380 
H     2.1081384   -4.7500782   -0.8677609 
H    -4.0298258   -3.1844157    2.7197635 
H    -4.1826952   -3.1936731    0.9479042 
H    -3.4056832   -1.8294849    1.7827527 
H     1.1668350   -2.9440978    3.9392527 
H     2.0147762   -4.3717841    3.2984544 
H     0.7699224   -4.5423234    4.5621187 
H     3.3874873   -1.8495935   -2.1353226 
H     3.9179285   -3.4452331   -1.5553605 
H     4.0060302   -3.0332935   -3.2825397 
H    -0.9224308   -1.9152817   -5.0063714 
H    -1.9738669   -3.3383211   -4.8161718 
H    -0.5732938   -3.3809863   -5.9168129 
H    -2.4286568   -5.9169893   -1.5870613 
H    -1.3747567   -7.1184250   -2.3114594 
H    -2.4750102   -7.2107388    0.5507392 
H    -3.0800001   -8.1529999   -0.8111141 
H    -0.0223547   -7.6692536    1.4015955 
H     0.9469317   -8.8779901    0.5608742 
H     0.9081945   -7.5070925   -1.5193388 
H     1.6119616   -6.6225467   -0.1833896 
H    -1.8296146   -2.9349340    7.7367644 
H    -1.9332555   -0.9261401    9.2711616 
H     2.6490709   -1.4068705   -8.2845806 
H     3.1424202    0.8721719   -9.2664160 
H    -1.5813205    1.0296366    3.8175574 
H     1.9306357    1.5889847   -3.6262962 
H    -2.3436228    4.7387187    0.8253425 
H     1.5875155    4.9473337    2.5442480 
H    -1.0754650    5.5600277   -2.0641691 
H     2.3647657    4.4394342    0.2494345 
H    -3.3542825    1.8044946    2.2243000 
H    -4.0036124    3.3897710    1.7459251 
H    -3.8411989    2.9583768    3.4631450 
H     1.3038624    1.9939127    4.5036364 
H     2.2784018    3.4447207    4.1697078 
H     1.0426667    3.4528324    5.4535178 
H     3.3978505    1.7646073   -1.6355310 
H     4.0440220    3.0886589   -0.6398093 
H     4.2235142    3.1142803   -2.4089353 
H    -0.6743543    3.0452297   -4.5599718 
H    -1.5765376    4.4983152   -4.0681079 
H    -0.1175220    4.6314891   -5.0828672 
H    -1.9344934    6.3091114   -0.3143740 
H    -0.7487316    7.5036147   -0.8127737 
H    -1.8737495    7.2022966    2.0239002 
H    -2.3569901    8.4303264    0.8541735 
H     0.6073353    7.2395576    2.9266629 
H     1.7071894    8.4700261    2.3059359 
H     1.5468313    7.4983366    0.0158758 
H     2.1386972    6.3200476    1.1671555 
H    -1.7023897    1.3714183    8.2371339 
H     2.8872202    2.8927557   -7.7653352 
C    -0.5193128    1.2694801    0.4537937 
C     0.3780783   -1.2561176   -0.7392628 
N    -0.4154277   -1.1752422    0.4782370 
N     0.3419984    1.1904332   -0.7169549 
C     0.8077624    0.0780260   -1.3044525 
C    -0.8682867   -0.0636355    1.0765186 
O     1.5736316    0.1066977   -2.2819897 
O    -1.5647508   -0.0927750    2.1053657 
H     0.6710097    2.0751230   -1.1089264 
H    -0.6884978   -2.0591322    0.9122965 
H    -1.4601522    1.7676375    0.1952164 
H    -0.1741097   -1.7943911   -1.5192306 
H    -0.0427311    1.8867703    1.2228389 
H     1.2833701   -1.8382823   -0.5473186 
