142
0 1
C     2.7235033    1.8733106   -7.4845296 
C     2.8157620    0.7411292   -8.2903321 
C     2.5515972   -0.5087173   -7.7362568 
C     2.2305033   -0.5812076   -6.3787959 
N     2.1654549    0.5027478   -5.5903038 
C     2.3889601    1.7073318   -6.1390455 
C     1.8780506   -1.9226239   -5.7777547 
O     1.7319172   -2.9204456   -6.4832911 
C     2.2014052    2.9311923   -5.2708451 
O     2.2803512    4.0669707   -5.7382049 
N     1.7288534   -1.8901812   -4.4247476 
C     1.2283105   -2.9425590   -3.6076552 
C    -0.0758570   -3.4245670   -3.7873912 
C    -0.5565088   -4.3896193   -2.8945387 
C     0.2052102   -4.8693173   -1.8279230 
C     1.5073351   -4.3714942   -1.6870101 
C     2.0388792   -3.4283324   -2.5669367 
C    -0.3601965   -5.8724391   -0.8035722 
C    -1.6331226   -6.5716254   -1.3439393 
C    -2.1632378   -7.6501696   -0.3928533 
C    -1.1093900   -8.7337246   -0.1461584 
C     0.1820717   -8.1030960    0.3822314 
C     0.6848634   -6.9922050   -0.5496097 
H    -0.9014462   -9.2582481   -1.0898291 
H    -1.4854830   -9.4824890    0.5606635 
C    -0.6873857   -5.0700946    0.4726894 
C    -1.8557850   -4.3016494    0.5430775 
C    -2.1792597   -3.5373744    1.6637433 
C    -1.2827077   -3.5143183    2.7479103 
C    -0.0954143   -4.2640220    2.7131797 
C     0.1710499   -5.0329702    1.5733341 
C    -3.4698954   -2.7614349    1.7228359 
N    -1.5489095   -2.6229664    3.8226147 
C    -1.6266435   -2.9402986    5.1449853 
O    -1.6134460   -4.0814585    5.6050738 
C     0.8959976   -4.2240203    3.8440387 
C    -0.9576205   -2.9059447   -4.8905364 
C     3.4516143   -2.9258393   -2.4075490 
C    -1.7036805   -1.7288667    6.0455113 
N    -1.5871460   -0.5156826    5.4835728 
C    -1.5547579    0.5600141    6.2853417 
C    -1.6686405    0.4699186    7.6745288 
C    -1.8237257   -0.7896662    8.2473071 
C    -1.8306887   -1.9129408    7.4239637 
C    -1.3212064    1.9118366    5.6521837 
O    -1.0796274    2.9057673    6.3362739 
N     1.9189304    2.6285874   -3.9744442 
C     1.4974336    3.5278601   -2.9565256 
C     0.3175797    4.2733120   -3.1012666 
C    -0.1200886    5.0441696   -2.0144643 
C     0.5636343    5.0794171   -0.7980848 
C     1.7382529    4.3225866   -0.6938898 
C     2.2282495    3.5605764   -1.7532690 
C     0.0726137    5.9058856    0.4072799 
C    -1.1090275    6.8283274    0.0237983 
C    -1.5482334    7.7314942    1.1827894 
C    -0.3923841    8.6149346    1.6640025 
C     0.8238779    7.7575014    2.0297817 
C     1.2254783    6.8422547    0.8669138 
H    -0.1154344    9.3148201    0.8632721 
H    -0.7055170    9.2192839    2.5232281 
C    -0.3356504    4.9093601    1.5099595 
C    -1.6325832    4.3839296    1.5661977 
C    -2.0048956    3.4222700    2.5075643 
C    -1.0392940    2.9553419    3.4145875 
C     0.2678532    3.4667510    3.3999838 
C     0.5856752    4.4435086    2.4511401 
C    -3.4111448    2.8801352    2.5459999 
N    -1.3892476    1.8923161    4.2924627 
C     1.3172754    2.9680061    4.3555984 
C    -0.4891271    4.2287173   -4.3707069 
C     3.5206371    2.7964310   -1.6235315 
H    -1.6305580   -1.6307868    3.5923413 
H     1.9241652   -0.9973528   -3.9713628 
H    -2.5468082   -4.2911783   -0.2948185 
H     1.0948765   -5.6029620    1.5611313 
H    -1.5691694   -4.7487183   -3.0443907 
H     2.1332830   -4.7167125   -0.8680846 
H    -4.0408528   -3.0310999    2.6182931 
H    -4.0827576   -2.9685839    0.8417739 
H    -3.2918541   -1.6814191    1.7727969 
H     1.0679039   -3.1946526    4.1791409 
H     1.8513322   -4.6542953    3.5313888 
H     0.5189427   -4.7800028    4.7089935 
H     3.9565435   -3.4454531   -1.5887673 
H     3.4764345   -1.8486940   -2.2006206 
H     4.0246353   -3.0840590   -3.3273759 
H    -0.6295823   -3.2935328   -5.8608667 
H    -1.9968032   -3.2013089   -4.7228280 
H    -0.9090845   -1.8128898   -4.9503743 
H    -2.4237500   -5.8429259   -1.5431194 
H    -1.3789667   -7.0283808   -2.3101121 
H    -2.4436241   -7.1864521    0.5622298 
H    -3.0744216   -8.0895953   -0.8147588 
H    -0.0039511   -7.6916906    1.3818557 
H     0.9648353   -8.8633477    0.4911662 
H     0.9333185   -7.4225045   -1.5285309 
H     1.6169513   -6.5736940   -0.1592108 
H    -1.9168382   -2.9228297    7.8096337 
H    -1.9217291   -0.8961382    9.3238183 
H     2.5745942   -1.4244079   -8.3164885 
H     3.0755613    0.8333030   -9.3406461 
H    -1.6485058    1.0015824    3.8686395 
H     1.9296399    1.6361831   -3.7326280 
H    -2.3875718    4.7230214    0.8629229 
H     1.6001519    4.8302304    2.4529843 
H    -1.0360966    5.6122192   -2.1405790 
H     2.2947876    4.3185147    0.2389698 
H    -3.4341027    1.8132143    2.2912599 
H    -3.8391054    2.9775625    3.5496526 
H    -4.0510203    3.4161500    1.8397699 
H     1.3070258    1.8737021    4.4136123 
H     2.3114631    3.2926098    4.0372635 
H     1.1273452    3.3426822    5.3673281 
H     3.3672740    1.7171725   -1.7300570 
H     3.9819438    2.9841438   -0.6501224 
H     4.2243881    3.0958943   -2.4078516 
H    -0.6055825    3.1980681   -4.7246049 
H    -1.4818652    4.6577950   -4.2104754 
H     0.0157589    4.7832808   -5.1685837 
H    -1.9617617    6.2451129   -0.3381926 
H    -0.7833101    7.4545716   -0.8171690 
H    -1.9041783    7.1110320    2.0148042 
H    -2.3938950    8.3510217    0.8611028 
H     0.5864167    7.1475673    2.9103443 
H     1.6737721    8.3948090    2.3010826 
H     1.5069049    7.4511473   -0.0016850 
H     2.1144791    6.2613704    1.1293905 
H    -1.6226829    1.3799822    8.2623042 
H     2.8862147    2.8770832   -7.8614177 
C    -0.7761044   -0.0340899    1.0924284 
C    -0.8447394    1.1448047    0.2113031 
C    -0.1024696    1.2201934   -0.9077695 
C     0.8077121    0.1205036   -1.2770889 
C     0.8760502   -1.0572420   -0.3952898 
C     0.1360289   -1.1308728    0.7240055 
O    -1.4794244   -0.1061546    2.1113555 
O     1.5119957    0.1851258   -2.2949351 
H    -1.5045781    1.9477375    0.5197573 
H    -0.1296086    2.0830267   -1.5661607 
H     1.5354298   -1.8598623   -0.7032108 
H     0.1644220   -1.9939158    1.3815046 
