12
0 1
C    -0.0000000    1.4402105    0.0000000 
C    -1.2663731    0.6722762    0.0000000 
C    -1.2663731   -0.6722762    0.0000000 
C    -0.0000000   -1.4402105    0.0000000 
C     1.2663731   -0.6722762    0.0000000 
C     1.2663731    0.6722762    0.0000000 
O    -0.0000000    2.6710474    0.0000000 
O    -0.0000000   -2.6710474    0.0000000 
H    -2.1800892    1.2604209    0.0000000 
H    -2.1800892   -1.2604209    0.0000000 
H     2.1800892   -1.2604209    0.0000000 
H     2.1800892    1.2604209    0.0000000 
