25
0 1
C    -0.6307321    0.5402226    1.6007610 
C    -1.4323708    0.3843021   -0.9084626 
C     1.6719394    0.6117572   -0.3834888 
C     1.5510631   -0.5521647    0.6254853 
C    -0.3464774   -0.3532471   -1.7136946 
C     1.0454109    0.2989081   -1.7527107 
C    -1.6328613   -0.0106322    0.5752030 
C     0.6710322   -0.2423000    1.8491763 
O    -1.6811850   -1.4426913    0.7514319 
H    -2.3899134   -1.7870252    0.1851070 
H    -2.6123888    0.4091880    0.8556779 
H     1.1440221   -1.4333330    0.1191489 
H     1.1977072    1.5094269    0.0308901 
H    -0.2738759   -1.3776781   -1.3310237 
H    -1.1499746    0.5987724    2.5651825 
H    -0.4080688    1.5762043    1.3167509 
H     0.4217058   -1.1849098    2.3475307 
H    -2.3972926    0.1974266   -1.4009173 
H    -0.6911535   -0.4454803   -2.7509237 
H     1.2537161    0.3480585    2.5696775 
H     1.7129221   -0.3776406   -2.3037550 
H    -1.2829604    1.4722150   -0.9549912 
H     2.5440987   -0.8443332    0.9857694 
H     2.7235837    0.8794345   -0.5372184 
H     0.9920533    1.2255193   -2.3406064 
