126
0 1
O    -4.2713085    0.0633488   -3.1316478 
O    -2.7431881    3.5303860   -3.1132616 
O     0.8972136    4.3286947   -3.1172556 
O     3.8038483    1.8619064   -3.1347012 
O     3.8932415   -1.9932818   -3.1221417 
O     1.0321905   -4.3762909   -3.1130878 
O    -2.6154683   -3.4170977   -3.1293258 
O    -4.4496244   -0.0673026    3.1151321 
O    -2.6962165    3.3040977    3.1342884 
O     1.0458602    4.1985114    3.1282613 
O     4.0574402    1.9388691    3.1130518 
O     3.9636043   -1.7946091    3.1225878 
O     0.9062661   -4.1517877    3.1339488 
O    -2.8221556   -3.4250757    3.1166121 
N    -5.0550665   -1.0928039   -1.2662814 
N    -5.1339758    1.1435489   -1.2578570 
N    -4.0534842    3.3281013   -1.1966950 
N    -2.3479676    4.7782894   -1.1871822 
N     0.0299589    5.3293351   -1.2020236 
N     2.1884569    4.7355232   -1.2200101 
N     4.1062826    3.2341169   -1.2774447 
N     5.0396147    1.2007347   -1.2736316 
N     5.0308873   -1.2330331   -1.2350683 
N     4.1743419   -3.3010930   -1.2164581 
N     2.2621869   -4.8188018   -1.1854894 
N     0.0687711   -5.2670941   -1.1873976 
N    -2.3144393   -4.7563506   -1.2486235 
N    -4.0024053   -3.2873916   -1.2610231 
N    -5.1924358   -1.1484759    1.1910941 
N    -5.1145450    1.0889561    1.2038632 
N    -4.0852356    3.2975178    1.2651594 
N    -2.2987518    4.6448878    1.2705229 
N     0.0736377    5.1883968    1.2557725 
N     2.2751573    4.7874323    1.2404988 
N     4.1603424    3.2414370    1.1838496 
N     5.1602605    1.2384330    1.1847213 
N     5.1731975   -1.2022561    1.2232502 
N     4.0956204   -3.1642046    1.2411147 
N     2.1997238   -4.6898666    1.2721123 
N     0.0330909   -5.2483889    1.2743794 
N    -2.3353853   -4.6780274    1.2125671 
N    -4.1375631   -3.3497624    1.1966043 
C    -5.8053046   -0.7849759   -0.0661302 
C    -5.8061188    0.7807028   -0.0318308 
C    -2.9285801   -3.7655562   -2.0094529 
C    -1.2245593   -5.5449733   -1.7767354 
C    -4.2338128    4.0548218    0.0436893 
C    -3.0113781    5.0334250    0.0713716 
C     1.1086691   -4.7582843   -1.9633960 
C     3.5591902   -4.4995931   -1.7426483 
C     0.5305000    5.8487721    0.0495988 
C     2.0566543    5.5009630    0.0040125 
C     4.3013430   -2.1504116   -1.9897706 
C     5.5468398   -0.0262231   -1.8459554 
C     4.8930978    3.2295206   -0.0651367 
C     5.5693689    1.8168532   -0.0760627 
C     4.2478775    2.0672868   -2.0237150 
C     5.5717313   -1.8149541   -0.0220296 
C     4.8945748   -3.2253855    0.0326841 
C    -4.9858921   -2.4106826   -1.8587268 
C    -4.7461155    0.0413330   -2.0146382 
C     2.0570995   -5.4936514    0.0765070 
C     0.5312656   -5.8465316    0.0571251 
C    -5.0685108    2.4845531   -1.7928969 
C    -3.0056604    3.8301446   -1.9666148 
C    -3.0129850   -5.0396766   -0.0167678 
C    -4.2342936   -4.0603694   -0.0577886 
C    -1.2877747    5.5960372   -1.7358218 
C     1.0192371    4.7329675   -1.9791692 
C    -5.1681321   -2.4889599    1.7350197 
C    -4.8535101   -0.0455976    1.9705734 
C     3.4599560    4.4032723   -1.8286246 
C    -3.0599511   -3.7633044    1.9752612 
C    -1.2868954   -5.4729372    1.8180678 
C    -5.0867755    2.4063023    1.8049635 
C    -2.9822778    3.6890077    2.0190652 
C     1.0274399   -4.6235676    2.0220017 
C     3.4719855   -4.3193624    1.8508873 
C    -1.2232146    5.4141538    1.8564710 
C     1.1196755    4.6532830    2.0051451 
C     4.3495275   -2.0185408    1.9936460 
C     5.7201280    0.0288891    1.7490315 
C     3.5730281    4.4297408    1.7668268 
C     4.4028497    2.1112347    1.9621607 
H    -6.8141884   -1.2214089   -0.1316987 
H     5.4871844    0.0463367    2.8174689 
H     3.4356764    4.2201325    2.8314500 
H     4.2598332    5.2775038    1.6242545 
H     6.8085006    0.0296324    1.5894164 
H     4.1595220   -5.1773092    1.7857650 
H    -1.4698362    6.4853726    1.7893964 
H    -1.1446876    5.1028473    2.9020933 
H     3.2810797   -4.0589093    2.8959906 
H    -1.5379006   -6.5395977    1.7145412 
H    -6.0767022    2.8742112    1.6931531 
H    -4.8462505    2.2626913    2.8622180 
H    -1.2477324   -5.1875977    2.8731882 
H     3.2560833    4.1861071   -2.8810940 
H    -4.9664160   -2.3892843    2.8052435 
H    -6.1480244   -2.9593387    1.5670034 
H     4.1400616    5.2638859   -1.7357803 
H    -5.2055123   -4.5751333   -0.1235426 
H    -1.5312139    6.6554282   -1.5682070 
H    -3.3046052   -6.1010927    0.0141695 
H    -1.2439450    5.3749605   -2.8059754 
H     0.3332622   -6.9297838    0.0626038 
H    -6.0517562    2.9637977   -1.6716574 
H     2.7097021   -6.3785297    0.1390122 
H    -4.8140875    2.3906550   -2.8524694 
H     5.6159988   -4.0544995    0.1009718 
H    -5.9775002   -2.8857495   -1.7956515 
H     6.6702183   -1.8593963   -0.0840788 
H    -4.6920928   -2.2726210   -2.9033161 
H     6.6684281    1.8588478   -0.1303462 
H     5.2294266   -0.0432781   -2.8926164 
H     5.6157607    4.0601886   -0.0834276 
H     6.6459439   -0.0271368   -1.7753997 
H     2.7064896    6.3890728   -0.0370666 
H     4.2382906   -5.3486833   -1.5766278 
H     0.3301922    6.9296482    0.1143816 
H     3.4064721   -4.3313035   -2.8124651 
H    -3.3016530    6.0938445    0.1342296 
H    -1.1426693   -5.3001583   -2.8395125 
H    -5.2066668    4.5707011    0.0377492 
H    -1.4600091   -6.6113679   -1.6418327 
H    -6.8169528    1.2170595   -0.0145164 
