133
0 1
C     6.6886309   -0.9718643    2.0770375 
C    -1.1927606    6.5650388   -1.6513836 
C    -1.8434839    7.0001998   -0.3207191 
C     7.0743352   -1.6581341    0.7513022 
C     7.3946820   -3.8845191   -0.4559236 
C    -3.9975438    7.0293046    1.0488250 
C     7.0424172   -3.1854580    0.8612313 
C    -3.3364282    6.6621932   -0.2830974 
C    -5.4744641    6.6247688    1.1156959 
C     7.4303494   -5.4128220   -0.3433046 
C     7.7903805   -6.1002228   -1.6639210 
C    -6.1295752    6.9798663    2.4540573 
C     3.8429598    3.9388476    0.1978582 
C     5.3812019    2.4118955    1.0299733 
C     2.2479493    5.4022358   -0.6459108 
C     4.8481525    4.9519055    0.1271486 
C     6.1447751    4.6348115    0.5826768 
C     4.4868719    6.2121488   -0.3958973 
N     5.6118519    1.0977149    1.4028771 
N     0.9167259    5.5940241   -0.9628463 
C     6.4237106    3.3787810    1.0505254 
C     3.2017004    6.4473926   -0.8017653 
C     0.3187739    6.6803382   -1.6012602 
C     6.7601813    0.5404202    1.9542709 
N     4.1280737    2.6789094    0.6310944 
N     2.5544495    4.1852629   -0.1678731 
O     7.7524052    1.1804177    2.2854523 
O     0.9344973    7.6375591   -2.0564965 
H     4.8658100    0.4270639    1.1451846 
H     0.2626413    4.8743233   -0.6028516 
H     2.8762375    7.3896268   -1.2192497 
H     7.3978589    3.0876015    1.4164800 
H     6.9194130    5.3974727    0.5535793 
H     5.2408518    6.9922521   -0.4701300 
H    -1.5412539    7.1982318   -2.4714641 
H     7.3871069   -1.2603563    2.8673384 
H     8.0787927   -1.3289131    0.4567265 
H    -1.6853341    8.0765206   -0.1770093 
H     6.3805441   -1.3362705   -0.0335932 
H    -1.3472136    6.4829373    0.5077780 
H     5.6781206   -1.2862607    2.3594387 
H    -1.4805942    5.5277339   -1.8547710 
H    -3.8548412    7.1752020   -1.1060183 
H     7.7416477   -3.5101124    1.6447731 
H     8.3735283   -3.5272600   -0.8059977 
H    -3.9056373    8.1111649    1.2239700 
H    -3.4528541    6.5346035    1.8653090 
H     6.6677029   -3.5913490   -1.2268393 
H    -3.4515761    5.5840183   -0.4536246 
H     6.0414502   -3.5017133    1.1862250 
H    -6.0211958    7.1131722    0.2971415 
H     8.1565446   -5.6984333    0.4298149 
H     6.4536424   -5.7742845    0.0053628 
H    -5.5541940    5.5436055    0.9411865 
H     8.7801002   -5.7831708   -2.0126036 
H    -6.0846156    8.0597144    2.6398107 
H    -5.6178804    6.4786206    3.2841095 
H     7.0662923   -5.8494792   -2.4474519 
H    -7.1827401    6.6786100    2.4780039 
H     7.8055848   -7.1903076   -1.5571447 
C    -2.6957612   -1.7274817    1.1179344 
C    -3.4980736   -2.5174745    0.0430036 
C    -4.5013109   -2.8394011    2.1834702 
C    -4.8792043   -2.7369427    0.7042987 
C    -2.9173143   -1.3407217   -3.3828209 
C    -7.6375389   -0.4749979   -0.2381527 
C    -1.2457408   -2.3924222   -1.8256049 
C     2.3156293   -3.1751885    0.6753154 
C    -6.8966993   -2.5290446   -1.4827265 
C    -3.1768861   -3.7597914   -2.7172186 
C    -7.8810754   -2.7403202    0.8433310 
C     2.7077076   -3.6650417   -0.7232852 
C    -2.7108261   -2.3691460   -2.2730941 
C    -7.0431382   -1.8759125   -0.1046447 
C    -4.1840383   -4.2601571    2.6430878 
C     3.2834131   -5.0838904   -0.6978283 
C     3.7140446   -5.5696603   -2.0847182 
C    -1.4776647    0.4352670    0.7489253 
C    -1.8749007    1.7551556    0.5496716 
C    -3.6791208    0.6300902    0.7617114 
N    -2.6392367   -0.2908929    0.8896529 
C     0.7175446    0.8625860    0.5993612 
N     0.4391459    2.1851737    0.3971525 
N     2.0518378    0.5266980    0.5901482 
N     1.7912011   -1.8135017    0.6791426 
C    -0.8654536    2.7408463    0.3432248 
C     2.6180573   -0.7549288    0.6236390 
N    -0.2175753   -0.0576557    0.7826350 
N    -3.2573039    1.8561914    0.5624270 
O    -5.7284049   -1.6212021    0.4854805 
O    -3.5838491   -1.8792932   -1.2043058 
O    -3.3089573   -2.0276024    2.3658977 
O     3.8564749   -0.8652639    0.5954031 
O    -1.0049487    3.9500458    0.1199355 
O    -5.3899302   -5.0255068    2.5051832 
H     0.7910297   -1.6019723    0.7255670 
H     2.7542878    1.2969348    0.5500328 
H     1.2221767    2.8592112    0.2172026 
H    -1.6493531   -2.0413601    1.1554035 
H    -3.0211142   -3.5020217   -0.0438344 
H    -5.3371150   -3.6638519    0.3520151 
H    -5.2566835   -5.8854294    2.9310172 
H    -5.2911071   -2.4128140    2.8066644 
H    -4.7061466    0.3025178    0.8168100 
H     1.8285813   -3.6274072   -1.3801666 
H     3.1888938   -3.2088630    1.3349264 
H     3.4491035   -2.9707828   -1.1355282 
H     2.5388326   -5.7757912   -0.2798338 
H     4.1443784   -5.1086874   -0.0173583 
H     1.5416031   -3.8192181    1.1062395 
H    -0.9329019   -1.4094456   -1.4643766 
H    -3.8440551   -4.2272350    3.6860105 
H    -3.3745625   -4.6852059    2.0286431 
H    -6.2376720   -1.9270385   -2.1128431 
H    -2.6124249   -0.3488679   -3.0375014 
H    -1.0781123   -3.1295041   -1.0315594 
H    -3.9727562   -1.2999051   -3.6671758 
H    -0.6050955   -2.6710218   -2.6684503 
H    -4.2230522   -3.7254570   -3.0334829 
H    -7.0156549    0.1398702   -0.8953987 
H    -7.4232222   -3.7208842    1.0075587 
H    -7.6938198    0.0068243    0.7426776 
H    -7.8790717   -2.6069924   -1.9602698 
H    -7.9889045   -2.2433422    1.8124634 
H    -2.3261020   -1.6069477   -4.2645725 
H    -8.6465287   -0.5297310   -0.6585300 
H    -6.4839960   -3.5408298   -1.4111153 
H    -2.5682779   -4.1133789   -3.5560315 
H    -8.8794050   -2.8995150    0.4218267 
H    -3.0803985   -4.4930256   -1.9083447 
H     2.8624002   -5.5930229   -2.7745259 
H     4.4708150   -4.9029440   -2.5127224 
H     4.1405683   -6.5770565   -2.0401803 
