60
0 1
C     3.4029741   -0.4340244    4.4684191 
C    -3.3388288    0.6542622   -4.6107767 
C    -3.4693044   -0.2936872   -5.8142706 
C     3.5498394    0.3793311    5.7635519 
C     5.1506036    1.6227216    7.3154821 
C    -3.4044111   -0.5110570   -8.3572601 
C     4.9958119    0.8097640    6.0259206 
C    -3.2818845    0.4274166   -7.1522245 
C    -3.2262014    0.2041560   -9.7012763 
C     6.5961840    2.0519222    7.5903522 
C     6.7407053    2.8637537    8.8812090 
C    -3.3493688   -0.7417496  -10.8997354 
C    -1.2615139   -0.8279952    0.7772701 
C     0.1389471   -1.0198797    2.5927818 
C    -2.5890140   -0.5826070   -1.0860411 
C    -2.2815863   -1.5804323    1.4441496 
C    -2.0095979   -2.0449020    2.7510823 
C    -3.4921067   -1.8082334    0.7508399 
N     1.4035625   -0.6816830    3.0896464 
N    -2.6470497   -0.0319789   -2.3720470 
C    -0.8015935   -1.7741822    3.3455700 
C    -3.6664582   -1.3164598   -0.5195072 
C    -3.6657305   -0.0620527   -3.3082832 
C     1.9884768   -0.9745932    4.3089732 
N    -0.0691228   -0.5621660    1.3655032 
N    -1.4355402   -0.3428340   -0.4768993 
O     1.4305620   -1.6115726    5.1944852 
O    -4.7405455   -0.6212823   -3.1254966 
H     1.9438522   -0.1444671    2.4192368 
H    -1.7918538    0.4577880   -2.6144288 
H    -4.5726132   -1.4640000   -1.0905108 
H    -0.5467797   -2.1063471    4.3424228 
H    -2.7656513   -2.6184876    3.2821165 
H    -4.2844496   -2.3766332    1.2322866 
H    -4.0626330    1.4722399   -4.7147326 
H     4.0723018   -1.3033422    4.5092339 
H     3.1791275   -0.2299456    6.5950502 
H    -4.4573246   -0.7654029   -5.7739590 
H     2.9047044    1.2663062    5.7082998 
H    -2.7285318   -1.0991900   -5.7221544 
H     3.7022188    0.1664142    3.6007605 
H    -2.3382414    1.1026871   -4.5828995 
H    -4.0283534    1.2298306   -7.2380136 
H     5.6347724   -0.0832693    6.0794935 
H     4.7797226    1.0301797    8.1637240 
H    -4.3870240   -1.0031968   -8.3348558 
H    -2.6569831   -1.3126827   -8.2709436 
H     4.5112573    2.5154932    7.2612096 
H    -2.2978044    0.9174865   -7.1727575 
H     5.3648494    1.4029982    5.1768723 
H    -3.9741418    1.0043052   -9.7853788 
H     7.2331259    1.1585133    7.6440324 
H     6.9647100    2.6426953    6.7405592 
H    -2.2443662    0.6967185   -9.7201971 
H     6.4063828    2.2828980    9.7487374 
H    -4.3337116   -1.2239719  -10.9187937 
H    -2.5924370   -1.5334451  -10.8535634 
H     6.1356061    3.7770473    8.8397585 
H    -3.2188860   -0.2070602  -11.8466207 
H     7.7813461    3.1578857    9.0545971 
