36
1 1
C    -1.8774906    1.7299507    0.0000000 
C     0.5529878   -2.4923356    0.0000000 
C    -1.4424080    3.8349027    0.0000000 
C     2.5916483   -3.1736108    0.0000000 
C    -2.8505391    3.7186022    0.0000000 
C     1.7836783   -4.3327276    0.0000000 
N    -3.1020533    2.3416087    0.0000000 
N     0.4666873   -3.8584529    0.0000000 
N    -1.7526513    0.3360831    0.0000000 
N    -0.5895901   -1.6841416    0.0000000 
C    -0.5552062   -0.3194178    0.0000000 
C     3.7017226   -5.7128804    0.0000000 
C    -3.0803722    6.0703884    0.0000000 
C    -1.6791548    6.2032645    0.0000000 
C     4.5205686   -4.5680738    0.0000000 
C     3.9837349   -3.2850608    0.0000000 
C    -0.8394335    5.0945403    0.0000000 
C    -3.6985279    4.8222011    0.0000000 
C     2.3119127   -5.6203366    0.0000000 
N     0.5800277    0.3343753    0.0000000 
N    -0.8625931    2.5622995    0.0000000 
N     1.7825303   -2.0329762    0.0000000 
H     0.5089790    1.3695480    0.0000000 
H     1.4397804   -0.2465215    0.0000000 
H    -1.4902588   -2.1435288    0.0000000 
H    -2.6022659   -0.2120451    0.0000000 
H    -4.0140110    1.9048675    0.0000000 
H    -0.3690049   -4.4276797    0.0000000 
H    -1.2461394    7.1982324    0.0000000 
H     5.5984271   -4.6935237    0.0000000 
H     4.1645425   -6.6943153    0.0000000 
H    -3.6965068    6.9635959    0.0000000 
H     4.6147301   -2.4028009    0.0000000 
H     0.2404247    5.1968611    0.0000000 
H     1.6851453   -6.5061420    0.0000000 
H    -4.7793208    4.7252497    0.0000000 
