30
0 1
C    -1.2284174    1.4547451    0.0000000 
C     1.2284178   -1.4547461    0.0000000 
C     0.0137942    0.7090508    0.0000000 
C    -0.0137954   -0.7090535    0.0000000 
C    -2.4686519    0.7464287    0.0000000 
C     2.4686517   -0.7464287    0.0000000 
C    -3.6881776    1.4635252    0.0000000 
C     3.6881780   -1.4635245    0.0000000 
C     1.2783374   -2.8695199    0.0000000 
C    -1.2783358    2.8695191    0.0000000 
C     1.2777714    1.3726810    0.0000000 
C    -1.2777738   -1.3726823    0.0000000 
C     2.4528986    0.6778688    0.0000000 
C    -2.4529003   -0.6778686    0.0000000 
C    -2.4817915    3.5478922    0.0000000 
C     2.4817938   -3.5478924    0.0000000 
C    -3.7007783    2.8424164    0.0000000 
C     3.7007796   -2.8424160    0.0000000 
H     1.3109458    2.4563096    0.0000000 
H    -1.3109493   -2.4563107    0.0000000 
H    -0.3587075    3.4441432    0.0000000 
H     0.3587089   -3.4441439    0.0000000 
H     3.4025157    1.2074925    0.0000000 
H    -3.4025173   -1.2074928    0.0000000 
H     4.6197205   -0.9024744    0.0000000 
H    -4.6197217    0.9024775    0.0000000 
H     2.4864156   -4.6342178    0.0000000 
H    -2.4864147    4.6342176    0.0000000 
H    -4.6424872    3.3836702    0.0000000 
H     4.6424907   -3.3836664    0.0000000 
