122
1 1
C    -0.7699901   -0.0958746   -5.0392035 
C     0.7974429   -0.1024224   -5.0186363 
N     1.1239950    1.0792316   -4.2364321 
C     0.0087138    1.7781339   -3.8164569 
N    -1.1038192    1.1101001   -4.3043959 
N    -1.1172046   -1.3412816   -4.3954166 
C    -0.0038409   -2.1281879   -4.0921495 
N     1.1221861   -1.3710876   -4.4103970 
O    -0.0192910   -3.2633547   -3.6713756 
O    -0.0047384    2.8111190   -3.1625453 
C     2.4565243   -1.9362065   -4.3184592 
C     2.4619977    1.6163927   -4.0914319 
C    -4.7925130   -0.1412271   -1.8577617 
C    -4.0038398   -0.1192941   -3.2137257 
N    -3.2404893    1.1189353   -3.1277702 
C    -4.9588534    1.6392576    0.0000000 
N    -4.3944176    1.1075327   -1.2227648 
N    -4.3238953   -1.3468214   -1.2194884 
C    -3.4512125   -2.0856559   -2.0211034 
N    -3.2333451   -1.3371517   -3.1769068 
O    -3.0023776   -3.1824864   -1.7750968 
O    -2.9844296    2.9019845   -1.6612630 
C    -2.4581956   -1.8727214   -4.2819104 
C    -2.4276581    1.6717948   -4.1946213 
C     4.8186035   -0.3032823    1.8590227 
C     4.0135858   -0.2250835    3.2015232 
N     3.2446520    1.0000202    3.0458197 
C     3.6127002    1.7306494    1.9228173 
N     4.5367014    0.9694006    1.2245578 
N     4.2658064   -1.4773414    1.2157254 
C     3.4144338   -2.2017282    2.0484995 
N     3.2551019   -1.4512498    3.2130877 
O     2.9330502   -3.2900089    1.8213013 
O     3.2137750    2.8435099    1.6293743 
C     2.4565243   -1.9362065    4.3184592 
C     2.4619977    1.6163927    4.0914319 
C     4.0135858   -0.2250835   -3.2015232 
C     4.8186035   -0.3032823   -1.8590227 
N     4.5367014    0.9694006   -1.2245578 
C     3.6127002    1.7306494   -1.9228173 
N     3.2446520    1.0000202   -3.0458197 
N     3.2551019   -1.4512498   -3.2130877 
C     3.4144338   -2.2017282   -2.0484995 
N     4.2658064   -1.4773414   -1.2157254 
O     2.9330502   -3.2900089   -1.8213013 
O     3.2137750    2.8435099   -1.6293743 
C     4.7851687   -2.0689591    0.0000000 
C     5.1419534    1.4525661    0.0000000 
C    -4.0038398   -0.1192941    3.2137257 
C    -4.7925130   -0.1412271    1.8577617 
N    -4.3944176    1.1075327    1.2227648 
C    -3.4770925    1.8183134    1.9672717 
N    -3.2404893    1.1189353    3.1277702 
N    -3.2333451   -1.3371517    3.1769068 
C    -3.4512125   -2.0856559    2.0211034 
N    -4.3238953   -1.3468214    1.2194884 
O    -3.0023776   -3.1824864    1.7750968 
O    -2.9844296    2.9019845    1.6612630 
C    -4.8687269   -1.9087729    0.0000000 
C    -3.4770925    1.8183134   -1.9672717 
C     0.7974429   -0.1024224    5.0186363 
C    -0.7699901   -0.0958746    5.0392035 
N    -1.1038192    1.1101001    4.3043959 
C     0.0087138    1.7781339    3.8164569 
N     1.1239950    1.0792316    4.2364321 
N     1.1221861   -1.3710876    4.4103970 
C    -0.0038409   -2.1281879    4.0921495 
N    -1.1172046   -1.3412816    4.3954166 
O    -0.0192910   -3.2633547    3.6713756 
O    -0.0047384    2.8111190    3.1625453 
C    -2.4581956   -1.8727214    4.2819104 
C    -2.4276581    1.6717948    4.1946213 
H    -1.1966463   -0.0476315   -6.0505374 
H     1.2501913   -0.0246970   -6.0165511 
H     2.9931465   -1.7444499   -5.2561599 
H     2.3238167   -3.0103494   -4.1629715 
H     2.9843492    1.5129963   -5.0520459 
H     2.3591705    2.6711488   -3.8234832 
H    -5.8833763   -0.1611768   -1.9830239 
H    -4.6520070   -0.0936476   -4.0997261 
H    -2.3503259   -2.9455100   -4.0983092 
H    -3.0044789   -1.6936150   -5.2171388 
H     2.9843492    1.5129963    5.0520459 
H    -2.9536894    1.5301315   -5.1464793 
H     5.9018907   -0.4163965    2.0040830 
H     4.6532072   -0.1591662    4.0926712 
H     2.9931465   -1.7444499    5.2561599 
H     2.3238167   -3.0103494    4.1629715 
H    -2.3106262    2.7360209   -3.9776171 
H     2.3591705    2.6711488    3.8234832 
H     4.6532072   -0.1591662   -4.0926712 
H     5.9018907   -0.4163965   -2.0040830 
H     4.4680028   -3.1159252    0.0000000 
H     5.8818143   -1.9976679    0.0000000 
H     5.0221696    2.5385622    0.0000000 
H     6.2039119    1.1820083    0.0000000 
H    -4.6520070   -0.0936476    4.0997261 
H    -5.8833763   -0.1611768    1.9830239 
H    -5.9597992   -1.7843291    0.0000000 
H    -4.6021392   -2.9696695    0.0000000 
H    -6.0389360    1.4510380    0.0000000 
H    -4.7589221    2.7130830    0.0000000 
H     1.2501913   -0.0246970    6.0165511 
H    -1.1966463   -0.0476315    6.0505374 
H    -2.3503259   -2.9455100    4.0983092 
H    -3.0044789   -1.6936150    5.2171388 
H    -2.3106262    2.7360209    3.9776171 
H    -2.9536894    1.5301315    5.1464793 
C     0.2621518    1.9442664    0.0000000 
C    -0.4887801    0.6181144    0.0000000 
C     0.4913895   -0.5606231    0.0000000 
N    -0.6890425    3.1191461    0.0000000 
H    -1.3142541    3.1072918    0.8301917 
H    -1.3142541    3.1072918   -0.8301917 
H    -0.1592946    3.9942740    0.0000000 
H    -1.1375495    0.5582210    0.8824780 
H    -1.1375495    0.5582210   -0.8824780 
H     0.8849159    2.0627898   -0.8865605 
H     0.8849159    2.0627898    0.8865605 
H    -0.0383003   -1.5164108    0.0000000 
H     1.1344619   -0.5315903   -0.8854524 
H     1.1344619   -0.5315903    0.8854524 
