121
-1 1
C     3.1158672   -0.3730704   -2.0560150 
C     3.9502904   -1.2609708   -2.7150673 
C     3.2796359   -2.5147857   -2.7824897 
C     2.0500726   -2.3719538   -2.1590962 
C     3.3108227    1.0945332   -1.7115376 
C     4.6843344    1.5429262   -2.2776989 
C     2.2199061    1.9429809   -2.3436717 
C     2.1510549    2.4655300   -3.6253451 
C     0.9719246   -3.4010912   -1.8674451 
C     0.8787223   -3.6062427   -0.3318042 
C     1.3757562   -4.7399180   -2.5095022 
C    -0.3841914   -2.9902623   -2.4072812 
C    -1.0839581   -3.3814903   -3.5400721 
N     1.9677840   -1.0649842   -1.7240925 
N     1.0494117    2.2795605   -1.6980201 
N    -1.1878878   -2.1050818   -1.7286479 
C    -2.2008876    2.4596067   -2.3366807 
C    -3.4292184    2.5639272   -2.9680442 
C    -4.0835385    1.3072720   -2.8621475 
C    -3.2438390    0.4494082   -2.1728604 
C    -1.1316386    3.5202538   -2.1326008 
C    -1.1323038    3.9879486   -0.6569211 
C    -1.4808811    4.7386181   -3.0106055 
C     0.2364807    3.0105543   -2.5393777 
C     0.9050913    3.1349244   -3.7481667 
C    -3.4555809   -1.0132898   -1.8161980 
C    -4.8217170   -1.4556762   -2.3976611 
C    -2.3726107   -1.9102247   -2.3953238 
C    -2.3363611   -2.7025075   -3.5324344 
N    -2.1022608    1.1685732   -1.8519496 
C     3.3580259    1.2922149   -0.2052642 
C     3.4195019    2.4592442    0.5680803 
N     3.4504256    0.2305011    0.6414203 
C     3.5556847    2.0663630    1.9232490 
C     3.5711405    0.6656736    1.9500874 
C    -3.5080154   -1.2164864   -0.3071711 
C    -3.6422552   -2.3949646    0.4424822 
N    -3.4619008   -0.1755166    0.5674794 
C    -3.6813931   -2.0273764    1.8117339 
C    -3.5518083   -0.6329853    1.8701221 
C     3.6306623   -0.2438477    3.0643185 
C    -3.3900835    0.2363198    3.0121866 
O     3.7503857    0.0516982    4.2470915 
O    -3.4355186   -0.1053827    4.1886634 
O     3.5176878   -1.5574602    2.6427871 
O    -3.1285357    1.5256986    2.6190575 
C    -2.7524495    2.4408809    3.6810119 
C     3.5053802   -2.5383197    3.7062037 
C    -2.0098425    3.5962926    3.0387984 
C     3.1268617   -3.8701774    3.0862642 
C    -3.7737948   -2.9700698    2.9768478 
C     3.5770201    2.9835699    3.1094236 
C     2.1804142    3.1455997    3.7410762 
C    -2.3899615   -3.3726671    3.5218267 
C    -3.7173277   -3.7954977   -0.0935844 
C     3.3044257    3.8718659    0.0754228 
H     4.9292765   -1.0347836   -3.1133017 
H     3.6581736   -3.4194718   -3.2370745 
H     4.8510028    2.5968060   -2.0469718 
H     4.7126881    1.4080164   -3.3625176 
H     5.4832918    0.9486800   -1.8253334 
H     2.9064010    2.3650896   -4.3922826 
H     0.1108157   -4.3512113   -0.0942833 
H     0.6247659   -2.6734318    0.1793337 
H     1.8458427   -3.9512188    0.0481258 
H     1.4777048   -4.6434673   -3.5945406 
H     0.6131701   -5.4950198   -2.2966081 
H     2.3333491   -5.0788524   -2.1013830 
H    -0.7411939   -4.0844962   -4.2866541 
H     0.8266770    2.0557711   -0.7108284 
H    -0.9077112   -1.5726739   -0.8925118 
H    -3.8150381    3.4462371   -3.4583657 
H    -5.0567934    1.0570696   -3.2593631 
H    -0.3885833    4.7812607   -0.5144823 
H    -0.8939149    3.1712124    0.0269370 
H    -2.1231708    4.3811313   -0.4044292 
H    -1.5468514    4.4655947   -4.0676209 
H    -0.7097467    5.5055561   -2.8926816 
H    -2.4437598    5.1590551   -2.7021513 
H     0.5363497    3.6481663   -4.6252064 
H    -4.8274137   -1.3355254   -3.4848273 
H    -5.6229853   -0.8483813   -1.9687455 
H    -5.0025069   -2.5049108   -2.1570397 
H    -3.1234074   -2.7976723   -4.2675575 
H    -1.2949256    0.7833283   -1.3386280 
H     3.4302643   -0.7376508    0.3480478 
H    -3.2955474    0.7879643    0.3042909 
H    -2.1304733    1.8973086    4.3973123 
H    -3.6643007    2.7628191    4.1983893 
H     2.7887671   -2.2197427    4.4692373 
H     4.4984199   -2.5670016    4.1696131 
H    -1.1227604    3.2305022    2.5151191 
H    -1.6971546    4.3054435    3.8140741 
H    -2.6476746    4.1245935    2.3232043 
H     2.1260883   -3.8233498    2.6476758 
H     3.1319044   -4.6501567    3.8560189 
H     3.8358093   -4.1527040    2.3015100 
H    -4.3173290   -3.8704800    2.6636389 
H    -4.3452687   -2.4999970    3.7824997 
H     3.9483902    3.9659910    2.7909190 
H     4.2670086    2.5949481    3.8650817 
H     1.4516963    3.4713671    2.9942278 
H     2.2077831    3.8757743    4.5593348 
H     1.8400508    2.1876465    4.1432562 
H    -1.7692910   -3.8099185    2.7317972 
H    -2.4879291   -4.1063468    4.3310877 
H    -1.8725604   -2.4942822    3.9169864 
H    -3.2674466   -3.8588226   -1.0884999 
H    -4.7546240   -4.1512198   -0.1695356 
H    -3.1835802   -4.4917514    0.5625046 
H     3.2573447    3.9098032   -1.0155110 
H     4.1542373    4.4822917    0.4071604 
H     2.3905004    4.3438991    0.4565770 
H     1.1700495   -0.6574413   -1.2125643 
C     0.0668983    0.4462416    0.9793606 
O     0.3303000    1.6681744    1.0339051 
C     0.0514710   -0.3871547    2.2505852 
O    -0.1808907   -0.1776420   -0.1222526 
H     0.9054852   -1.0725022    2.2302056 
H    -0.8567350   -0.9932303    2.2875951 
H     0.1245801    0.2445292    3.1372840 
