15
0 1
N -1.9479424000 0.5576837000 0.0000000000
N -0.0437327000 2.0008051000 0.0000000000
N 1.2174508000 -1.3263456000 0.0000000000
N 2.0359129000 0.7413580000 0.0000000000
N -1.8135416000 -1.7438646000 0.0000000000
C 2.2946845000 -0.5951697000 0.0000000000
C 0.6837705000 0.8827785000 0.0000000000
C -1.2068603000 -0.5560829000 0.0000000000
C -1.3390816000 1.7415675000 0.0000000000
C 0.1931202000 -0.4148842000 0.0000000000
H 2.7224589000 1.4815189000 0.0000000000
H -2.8179825000 -1.8016155000 0.0000000000
H -1.2861324000 -2.5999089000 0.0000000000
H -1.9994427000 2.6039496000 0.0000000000
H 3.3073183000 -0.9717899000 0.0000000000
