9
1 1
C -0.0128660000 0.4107604000 -0.5124283000
C -0.0766720000 0.2079127000 1.0709953000
F 1.0274506000 0.9503666000 -0.9990323000
F 0.1763494000 -1.1654798000 -1.0124318000
F -1.0835367000 0.7332989000 -1.1115148000
F 1.0243820000 -0.3792713000 1.4625775000
F -0.1785004000 1.4104565000 1.5805788000
F -1.1266138000 -0.5175797000 1.3555371000
H 0.2500069000 -1.6504644000 -1.8342815000
