10
0 1
C 0.6100201000 -0.3959155000 0.0000000000
C 1.8427592000 0.1182673000 0.0000000000
C -0.6100201000 0.3959155000 0.0000000000
C -1.8427592000 -0.1182673000 0.0000000000
H 0.4833920000 -1.4760937000 0.0000000000
H 2.0103524000 1.1900896000 0.0000000000
H 2.7218076000 -0.5136311000 0.0000000000
H -0.4833920000 1.4760937000 0.0000000000
H -2.0103524000 -1.1900896000 0.0000000000
H -2.7218076000 0.5136311000 0.0000000000
