15
1 1
C 0.2780136000 0.3200124000 0.4583297000
H 0.7621402000 0.5333773000 1.4158949000
C 1.1175628000 -0.7037225000 -0.2870812000
O 1.7670367000 -0.4390840000 -1.2602413000
H 1.2209397000 1.8534472000 -0.6174596000
O 1.0369793000 -1.8789337000 0.2896741000
N 0.2829446000 1.5759660000 -0.3204521000
H -0.2916010000 1.4965007000 -1.1666824000
H -0.0911766000 2.3529019000 0.2271180000
C -1.1546425000 -0.1310676000 0.7150037000
H -1.1626584000 -1.0067469000 1.3600467000
H -1.6925804000 0.6543873000 1.2471104000
S -2.0892082000 -0.4441130000 -0.8100690000
H -1.5766605000 -1.6469873000 -1.0950291000
H 1.5929105000 -2.5359380000 -0.1561630000
