24

C 0.00000 1.21895 0.71992
C 0.00000 1.21895 -0.71992
C 0.00000 0.00000 1.39819
C 0.00000 2.47098 1.40149
C 0.00000 0.00000 -1.39819
C 0.00000 2.47098 -1.40149
C 0.00000 -1.21895 0.71992
C 0.00000 3.64629 0.71077
C 0.00000 -1.21895 -0.71992
C 0.00000 3.64629 -0.71077
C 0.00000 -2.47098 1.40149
C 0.00000 -2.47098 -1.40149
C 0.00000 -3.64629 0.71077
C 0.00000 -3.64629 -0.71077
H 0.00000 0.00000 2.48180
H 0.00000 2.46999 2.48420
H 0.00000 0.00000 -2.48180
H 0.00000 2.46999 -2.48420
H 0.00000 4.58889 1.24157
H 0.00000 4.58889 -1.24157
H 0.00000 -2.46999 2.48420
H 0.00000 -2.46999 -2.48420
H 0.00000 -4.58889 1.24157
H 0.00000 -4.58889 -1.24157
