18
1 2
C 0.00000 0.00000 0.71401
C 0.00000 0.00000 -0.71401
C 0.00000 1.24066 -1.39691
C 0.00000 -1.24066 -1.39691
C 0.00000 -1.24066 1.39691
C 0.00000 1.24066 1.39691
C 0.00000 2.42388 -0.70586
C 0.00000 -2.42388 -0.70586
C 0.00000 -2.42388 0.70586
C 0.00000 2.42388 0.70586
H 0.00000 1.23909 -2.47976
H 0.00000 -1.23909 -2.47976
H 0.00000 -1.23909 2.47976
H 0.00000 1.23909 2.47976
H 0.00000 3.36459 -1.24014
H 0.00000 -3.36459 -1.24014
H 0.00000 -3.36459 1.24014
H 0.00000 3.36459 1.24014
