30

C 0.00000 0.00000 0.72370
C 0.00000 0.00000 -0.72370
C 0.00000 1.23101 -1.40111
C 0.00000 -1.23101 -1.40111
C 0.00000 -1.23101 1.40111
C 0.00000 1.23101 1.40111
C 0.00000 2.44094 -0.72330
C 0.00000 -2.44094 -0.72330
C 0.00000 -2.44094 0.72330
C 0.00000 2.44094 0.72330
C 0.00000 3.69821 -1.40383
C 0.00000 -3.69821 -1.40383
C 0.00000 -3.69821 1.40383
C 0.00000 3.69821 1.40383
C 0.00000 4.87015 -0.71295
C 0.00000 -4.87015 -0.71295
C 0.00000 -4.87015 0.71295
C 0.00000 4.87015 0.71295
H 0.00000 1.23184 -2.48468
H 0.00000 -1.23184 -2.48468
H 0.00000 -1.23184 2.48468
H 0.00000 1.23184 2.48468
H 0.00000 3.69844 -2.48660
H 0.00000 -3.69844 -2.48660
H 0.00000 -3.69844 2.48660
H 0.00000 3.69844 2.48660
H 0.00000 5.81330 -1.24303
H 0.00000 -5.81330 -1.24303
H 0.00000 -5.81330 1.24303
H 0.00000 5.81330 1.24303
