9
0 1
C -1.1381730000 -0.4959070000 0.0000000000
C 0.0000000000 0.4803240000 0.0000000000
C 1.2902470000 0.1361990000 0.0000000000
H 1.5927410000 -0.9047240000 0.0000000000
H 2.0735140000 0.8825380000 0.0000000000
H -0.2617090000 1.5343910000 0.0000000000
H -0.7719120000 -1.5229700000 0.0000000000
H -1.7725380000 -0.3564650000 0.8782030000
H -1.7725380000 -0.3564650000 -0.8782030000
