7
0 1
O 0.0000000000 0.0000000000 0.8544080000
C 0.0000000000 0.7322940000 -0.3730900000
C 0.0000000000 -0.7322940000 -0.3730900000
H 0.9194280000 1.2630850000 -0.5895470000
H -0.9194280000 1.2630850000 -0.5895470000
H 0.9194280000 -1.2630850000 -0.5895470000
H -0.9194280000 -1.2630850000 -0.5895470000
