8
0 1
C 0.0000000000 0.1550740000 0.0000000000
C 1.0603290000 -0.9079900000 0.0000000000
O 0.1875200000 1.3447160000 0.0000000000
O -1.2415770000 -0.3849890000 0.0000000000
H -1.8544670000 0.3612640000 0.0000000000
H 2.0400210000 -0.4415430000 0.0000000000
H 0.9424650000 -1.5400210000 0.8795850000
H 0.9424650000 -1.5400210000 -0.8795850000
