12
Formic Acid-Formamidine Complex  Dimer
C   -1.81131260    0.15832706    0.00000000
H   -2.91739607    0.25779849    0.00000000
O   -1.14367167    1.19940056    0.00000000
O   -1.41977566   -1.09000937    0.00000000
H   -0.35849776   -1.15413164    0.00000000
C    1.87381606   -0.17308101    0.00000000
H    2.97427347   -0.27204647    0.00000000
N    1.09844368   -1.22316593    0.00000000
H    1.64649981   -2.08331650    0.00000000
N    1.48635545    1.11647699    0.00000000
H    0.48139283    1.34214247    0.00000000
H    2.19917472    1.83148239    0.00000000
