7
Formamide-Formamidine Complex  Monomer B
C    2.22190118   -0.11395941    0.00000000
H    3.32331433   -0.17257731    0.00000000
N    1.46969819   -1.18352562    0.00000000
H    2.07143556   -2.01270689    0.00000000
N    1.67623295    1.13700945    0.00000000
H    0.65776551    1.23805882    0.00000000
H    2.26434801    1.95686864    0.00000000
