13
0 1
C   -1.87720296    0.13037316    0.00000000
H   -2.99024880    0.20231026    0.00000000
O   -1.21984382    1.18650518    0.00000000
N   -1.43964187   -1.13803078    0.00000000
H   -0.40644181   -1.33086253    0.00000000
H   -2.13868738   -1.87029717    0.00000000
C    1.91488588   -0.11471276    0.00000000
H    3.01882141   -0.18606105    0.00000000
N    1.23404120   -1.23071467    0.00000000
H    1.88923247   -2.01504741    0.00000000
N    1.43187244    1.14338561    0.00000000
H    0.41107420    1.29878706    0.00000000
H    2.08912295    1.90958573    0.00000000
