7
Formamidine Dimer  Monomer B
C   -2.09742845    0.10390077    0.00000000
H   -3.20059131    0.15854840    0.00000000
N   -1.36932506    1.19108785    0.00000000
H   -1.99079936    2.00473399    0.00000000
N   -1.56227621   -1.14466550    0.00000000
H   -0.53433608   -1.25999374    0.00000000
H   -2.17408498   -1.94769642    0.00000000
