7
0 1
C    2.06981923   -0.10799978    0.00000000
H    3.17183809   -0.16974799    0.00000000
N    1.34787373   -1.19906629    0.00000000
H    1.97244050   -2.00991317    0.00000000
N    1.53167706    1.13850851    0.00000000
H    0.50945141    1.24775624    0.00000000
H    2.13551288    1.94717878    0.00000000
