13
Formamide-Formamidine Complex  Dimer
C   -3.15990010    0.13729708    0.00000000
H   -4.27217260    0.18465048    0.00000000
O   -2.46166577    1.14950598    0.00000000
N   -2.66867708   -1.14125954    0.00000000
H   -1.66354000   -1.28595015    0.00000000
H   -3.28934347   -1.93968912    0.00000000
C    3.23430882   -0.13492712    0.00000000
H    4.33798775   -0.18191466    0.00000000
N    2.45446506   -1.17291481    0.00000000
H    3.03058764   -2.02136402    0.00000000
N    2.73117559    1.14418616    0.00000000
H    1.72670616    1.28092608    0.00000000
H    3.34065139    1.94785431    0.00000000
