12
0 1
C   -1.76494924    0.15235779    0.00000000
H   -2.87327871    0.25118115    0.00000000
O   -1.11608332    1.20862564    0.00000000
O   -1.38646683   -1.09127823    0.00000000
H   -0.29340506   -1.17844056    0.00000000
C    1.82082566   -0.16736510    0.00000000
H    2.92191627   -0.26554301    0.00000000
N    1.07144779   -1.23580930    0.00000000
H    1.63171355   -2.08650902    0.00000000
N    1.45046411    1.12181032    0.00000000
H    0.44433636    1.35982341    0.00000000
H    2.18036640    1.81973064    0.00000000
