7
0 1
C    2.39742249   -0.11120861    0.00000000
H    3.49964090   -0.16233693    0.00000000
N    1.64041315   -1.17535654    0.00000000
H    2.23917184   -2.00764182    0.00000000
N    1.84436251    1.14107385    0.00000000
H    0.82590336    1.23313494    0.00000000
H    2.42493207    1.96604670    0.00000000
