7
Formic Acid-Formamidine Complex  Monomer B
C    2.13554958   -0.17057869    0.00000000
H    3.23507103   -0.25694088    0.00000000
N    1.30498819   -1.18028525    0.00000000
H    1.82500469   -2.06170111    0.00000000
N    1.67894465    1.11473347    0.00000000
H    0.67115531    1.28502625    0.00000000
H    2.32574278    1.88931006    0.00000000
