11
0 1
C   -1.73348582    0.18223355    0.00000000
H   -2.83797096    0.30364160    0.00000000
O   -1.07653282    1.22594575    0.00000000
O   -1.38752757   -1.07701453    0.00000000
H   -0.36204548   -1.15331467    0.00000000
C    1.74555921   -0.20019268    0.00000000
H    2.85267994   -0.32189045    0.00000000
O    1.03958692   -1.22627875    0.00000000
N    1.44809759    1.10348563    0.00000000
H    0.46246915    1.40389863    0.00000000
H    2.22816418    1.74757255    0.00000000
