14
0 1
C    1.89693820   -0.10782700    0.00000000
H    3.00339990   -0.17072121    0.00000000
N    1.22354936   -1.22831838    0.00000000
H    1.88594286   -2.00636060    0.00000000
N    1.43499889    1.15607525    0.00000000
H    0.40250444    1.33793562    0.00000000
H    2.11977084    1.89888692    0.00000000
C   -1.89693820    0.10782700    0.00000000
H   -3.00339990    0.17072121    0.00000000
N   -1.22354936    1.22831838    0.00000000
H   -1.88594286    2.00636060    0.00000000
N   -1.43499889   -1.15607525    0.00000000
H   -0.40250444   -1.33793562    0.00000000
H   -2.11977084   -1.89888692    0.00000000
