12
0 1
C   -1.95441797    0.15753953    0.00000000
H   -3.05736547    0.24858075    0.00000000
O   -1.25897479    1.17508156    0.00000000
O   -1.51819340   -1.09554164    0.00000000
H   -0.49885308   -1.10531756    0.00000000
C    2.03202506   -0.17151568    0.00000000
H    3.13158097   -0.26227695    0.00000000
N    1.21422382   -1.19144395    0.00000000
H    1.73970852   -2.06839079    0.00000000
N    1.59233540    1.11373305    0.00000000
H    0.58444574    1.29777092    0.00000000
H    2.25678662    1.87343146    0.00000000
