13
0 1
C   -2.12238102    0.12001003    0.00000000
H   -3.23241727    0.17981127    0.00000000
O   -1.43641896    1.15577795    0.00000000
N   -1.60476162   -1.13362638    0.00000000
H   -0.57842142   -1.25321622    0.00000000
H   -2.22287071   -1.93470173    0.00000000
C    2.17139325   -0.11130946    0.00000000
H    3.27288112   -0.17065017    0.00000000
N    1.42791432   -1.18745819    0.00000000
H    2.03640187   -2.01135424    0.00000000
N    1.62476864    1.13714001    0.00000000
H    0.60488448    1.23808048    0.00000000
H    2.21504656    1.95554011    0.00000000
