12
0 1
C   -3.91213194    0.16018637    0.00000000
H   -5.01752318    0.20105168    0.00000000
O   -3.17868840    1.12881552    0.00000000
O   -3.49736776   -1.13502496    0.00000000
H   -2.52261475   -1.11615900    0.00000000
C    4.08240815   -0.13536451    0.00000000
H    5.18661439   -0.17618601    0.00000000
N    3.30082536   -1.16974476    0.00000000
H    3.87167108   -2.02158353    0.00000000
N    3.58224397    1.14684614    0.00000000
H    2.57892509    1.28493460    0.00000000
H    4.19355750    1.94910244    0.00000000
