13
0 1
C   -2.86354863    0.13635439    0.00000000
H   -3.97519119    0.18862454    0.00000000
O   -2.16694926    1.15157613    0.00000000
N   -2.36429186   -1.13776075    0.00000000
H   -1.35648460   -1.27362001    0.00000000
H   -2.97920858   -1.94060039    0.00000000
C    2.93005123   -0.13606441    0.00000000
H    4.03321099   -0.18793570    0.00000000
N    2.14816261   -1.17431528    0.00000000
H    2.72399657   -2.02298552    0.00000000
N    2.42557457    1.14138666    0.00000000
H    1.42000011    1.27687473    0.00000000
H    3.03409167    1.94580891    0.00000000
