11
0 1
C   -3.46303289    0.16994236    0.00000000
H   -4.56795025    0.22032609    0.00000000
O   -2.71952203    1.13148929    0.00000000
O   -3.06229197   -1.12882028    0.00000000
H   -2.08723785   -1.12403398    0.00000000
C    3.52970200   -0.14892316    0.00000000
H    4.64195129   -0.19964122    0.00000000
O    2.81721464   -1.14975890    0.00000000
N    3.05992779    1.13914187    0.00000000
H    2.05915506    1.30417766    0.00000000
H    3.69489864    1.92641219    0.00000000
