13
0 1
C   -2.27098481    0.12071738    0.00000000
H   -3.38079959    0.17880004    0.00000000
O   -1.58441741    1.15276122    0.00000000
N   -1.73927197   -1.13261218    0.00000000
H   -0.71758673   -1.23769913    0.00000000
H   -2.33880523   -1.94731780    0.00000000
C    2.32272918   -0.11969671    0.00000000
H    3.42422935   -0.17734422    0.00000000
N    1.55712717   -1.17831430    0.00000000
H    2.14807243   -2.01572191    0.00000000
N    1.78379346    1.13726371    0.00000000
H    0.76811221    1.24281216    0.00000000
H    2.37265274    1.95644249    0.00000000
