6
Formamide-Formamidine Complex  Monomer A
C   -2.46891156    0.12607812    0.00000000
H   -3.57918367    0.18293782    0.00000000
O   -1.78100213    1.15283979    0.00000000
N   -1.94185120   -1.13321981    0.00000000
H   -0.92564680   -1.24163694    0.00000000
H   -2.53922912   -1.94924812    0.00000000
