13
Formamide-Formamidine Complex  Dimer
C   -2.07299095    0.12047764    0.00000000
H   -3.18330109    0.18128485    0.00000000
O   -1.38900859    1.15844919    0.00000000
N   -1.56461787   -1.13434964    0.00000000
H   -0.53656198   -1.26288353    0.00000000
H   -2.19324500   -1.92734321    0.00000000
C    2.12072533   -0.10919529    0.00000000
H    3.22240596   -0.16952990    0.00000000
N    1.38733366   -1.19254323    0.00000000
H    2.00342544   -2.01034739    0.00000000
N    1.57620126    1.13760159    0.00000000
H    0.55501008    1.24096826    0.00000000
H    2.17143215    1.95251421    0.00000000
