7
Formamidine Dimer  Monomer B
C   -3.19740673    0.12881636    0.00000000
H   -4.30120367    0.17328586    0.00000000
N   -2.42581025    1.17305230    0.00000000
H   -3.00905003    2.01668226    0.00000000
N   -2.68267636   -1.14568753    0.00000000
H   -1.67620388   -1.27071277    0.00000000
H   -3.28436882   -1.95508270    0.00000000
