12
Formamide Dimer  Dimer
C    2.39601143   -0.13831545    0.00000000
H    3.50541998   -0.20235870    0.00000000
O    1.69032936   -1.15398956    0.00000000
N    1.89087102    1.12918383    0.00000000
H    0.87833293    1.25816233    0.00000000
H    2.50182267    1.93524951    0.00000000
C   -2.39601143    0.13831545    0.00000000
H   -3.50541998    0.20235870    0.00000000
O   -1.69032936    1.15398956    0.00000000
N   -1.89087102   -1.12918383    0.00000000
H   -0.87833293   -1.25816233    0.00000000
H   -2.50182267   -1.93524951    0.00000000
