10
0 1
C    1.74073379   -0.17985247    0.00000000
H    2.84248921   -0.29368574    0.00000000
O    1.04839226   -1.20544675    0.00000000
O    1.40587723    1.08303481    0.00000000
H    0.38948927    1.16733829    0.00000000
C   -1.74073379    0.17985247    0.00000000
H   -2.84248921    0.29368574    0.00000000
O   -1.04839226    1.20544675    0.00000000
O   -1.40587723   -1.08303481    0.00000000
H   -0.38948927   -1.16733829    0.00000000
