12
0 1
C    2.04597250   -0.12844429    0.00000000
H    3.15473976   -0.19805169    0.00000000
O    1.36080054   -1.16589088    0.00000000
N    1.54023054    1.12707489    0.00000000
H    0.51870599    1.25472290    0.00000000
H    2.16442795    1.92321328    0.00000000
C   -2.04597250    0.12844429    0.00000000
H   -3.15473976    0.19805169    0.00000000
O   -1.36080054    1.16589088    0.00000000
N   -1.54023054   -1.12707489    0.00000000
H   -0.51870599   -1.25472290    0.00000000
H   -2.16442795   -1.92321328    0.00000000
