7
0 1
C   -1.99727808    0.10431489    0.00000000
H   -3.10176903    0.16200082    0.00000000
N   -1.29228783    1.20609151    0.00000000
H   -1.93090747    2.00517101    0.00000000
N   -1.49059653   -1.14934169    0.00000000
H   -0.45949690   -1.29156428    0.00000000
H   -2.13289668   -1.92867591    0.00000000
