7
0 1
C    3.26369185   -0.14893273    0.00000000
H    4.36705371   -0.20413229    0.00000000
N    2.46830003   -1.17413526    0.00000000
H    3.02869067   -2.03292199    0.00000000
N    2.77871570    1.13816091    0.00000000
H    1.77677840    1.28984953    0.00000000
H    3.39990002    1.93285794    0.00000000
