12
0 1
C   -1.90625728    0.15789816    0.00000000
H   -3.00992908    0.25165586    0.00000000
O   -1.21798842    1.18183546    0.00000000
O   -1.48225867   -1.09353763    0.00000000
H   -0.45272461   -1.11834425    0.00000000
C    1.97974667   -0.17222063    0.00000000
H    3.07948948   -0.26564455    0.00000000
N    1.17265485   -1.20000472    0.00000000
H    1.70375525   -2.07277955    0.00000000
N    1.55373649    1.11388209    0.00000000
H    0.54641308    1.30898417    0.00000000
H    2.23141500    1.86193091    0.00000000
