7
0 1
C    2.18703912   -0.16992061    0.00000000
H    3.28668154   -0.25438558    0.00000000
N    1.35416505   -1.17725815    0.00000000
H    1.87421236   -2.05911458    0.00000000
N    1.72522255    1.11572240    0.00000000
H    0.71775960    1.28182144    0.00000000
H    2.36632423    1.89492965    0.00000000
