7
Formamide-Formamidine Complex  Monomer B
C    1.91488588   -0.11471276    0.00000000
H    3.01882141   -0.18606105    0.00000000
N    1.23404120   -1.23071467    0.00000000
H    1.88923247   -2.01504741    0.00000000
N    1.43187244    1.14338561    0.00000000
H    0.41107420    1.29878706    0.00000000
H    2.08912295    1.90958573    0.00000000
