7
0 1
C    2.01860067   -0.10816415    0.00000000
H    3.12111663   -0.17197486    0.00000000
N    1.30940050   -1.20735856    0.00000000
H    1.94334630   -2.01030940    0.00000000
N    1.49223980    1.13988904    0.00000000
H    0.46948873    1.25930607    0.00000000
H    2.10902806    1.93883512    0.00000000
