6
Formic Acid-Formamide Complex  Monomer B
C    2.31485963   -0.17022217    0.00000000
H    3.42259050   -0.25474451    0.00000000
O    1.57138429   -1.15932816    0.00000000
N    1.85465707    1.11426632    0.00000000
H    0.84799242    1.27930626    0.00000000
H    2.49507804    1.89722164    0.00000000
