6
Formic Acid-Formamide Complex  Monomer B
C    1.79967181   -0.19037187    0.00000000
H    2.90662488   -0.30195151    0.00000000
O    1.08054052   -1.20751884    0.00000000
N    1.46296486    1.10656646    0.00000000
H    0.46794114    1.37317096    0.00000000
H    2.21379368    1.78455973    0.00000000
