6
Formic Acid-Formamide Complex  Monomer B
C    2.41653317   -0.16870436    0.00000000
H    3.52489949   -0.25021697    0.00000000
O    1.67809174   -1.15922822    0.00000000
N    1.95399445    1.11666331    0.00000000
H    0.94841269    1.28120182    0.00000000
H    2.59207415    1.90149404    0.00000000
