6
Formic Acid-Formamide Complex  Monomer B
C    4.03559598   -0.14084533    0.00000000
H    5.14833239   -0.18302898    0.00000000
O    3.33114210   -1.14677626    0.00000000
N    3.55651747    1.14422533    0.00000000
H    2.55468792    1.30114823    0.00000000
H    4.18559310    1.93619532    0.00000000
