7
0 1
C    2.75133046   -0.15977949    0.00000000
H    3.85338801   -0.22807284    0.00000000
N    1.94079641   -1.17624150    0.00000000
H    2.48828614   -2.04318335    0.00000000
N    2.27517829    1.12893018    0.00000000
H    1.27261881    1.28724241    0.00000000
H    2.90172978    1.91949574    0.00000000
