7
Formic Acid-Formamidine Complex  Monomer B
C    2.54642003   -0.16315517    0.00000000
H    3.64763409   -0.23693560    0.00000000
N    1.72722352   -1.17543768    0.00000000
H    2.26584227   -2.04765017    0.00000000
N    2.07067818    1.12435634    0.00000000
H    1.06632369    1.28126044    0.00000000
H    2.69733971    1.91489993    0.00000000
