16
0 1
C         -1.57059        0.07927       -0.37035
H         -1.35534       -0.07313       -1.42694
O         -1.33556       -1.19411        0.24862
C         -0.70981        1.20392        0.19493
H         -1.13995        2.14521       -0.15843
H         -0.81632        1.21265        1.28553
C          0.77617        1.18138       -0.18151
H          1.23060        2.09879        0.20338
H          0.87925        1.20814       -1.26924
H         -1.58025       -1.11735        1.17546
H         -2.62803        0.33721       -0.27588
C          1.59497        0.00103        0.34120
H          2.65355        0.22862        0.21844
H          1.41362       -0.12672        1.41624
O          1.37637       -1.20895       -0.36301
H          0.47196       -1.48254       -0.15904
