16
0 1
C          2.04637        0.35463        0.32139
H          2.04438        0.24001        1.41079
O          2.46254       -0.85242       -0.31148
C          0.67943        0.83450       -0.15187
H          0.48614        1.81323        0.29777
H          0.71619        0.97544       -1.23449
C         -0.44908       -0.12836        0.21078
H         -0.46966       -0.29503        1.29080
H         -0.29218       -1.09752       -0.26703
H          1.89768       -1.55905        0.01069
H          2.80726        1.09101        0.06812
C         -1.80722        0.38870       -0.22363
H         -2.01149        1.34777        0.26395
H         -1.80965        0.55397       -1.30602
O         -2.78071       -0.58529        0.14462
H         -3.64032       -0.26506       -0.13976
