16
0 1
C          2.04047        0.34804        0.33807
H          2.02583        0.22137        1.42051
O          2.40028       -0.92809       -0.18486
C          0.67778        0.82684       -0.14839
H          0.49685        1.82570        0.26014
H          0.70717        0.93772       -1.23766
C         -0.45870       -0.11517        0.24240
H         -0.50007       -0.19489        1.33393
H         -0.26211       -1.11543       -0.14252
H          2.48983       -0.83367       -1.13724
H          2.80654        1.09264        0.10164
C         -1.80643        0.36562       -0.27600
H         -2.02129        1.36854        0.10991
H         -1.78518        0.43268       -1.36367
O         -2.87080       -0.53108        0.02676
H         -2.91219       -0.61328        0.98330
