16
0 1
C         -1.80637        0.36334       -0.27180
H         -1.79196        0.43750       -1.35885
O         -2.87167       -0.53239        0.03295
C         -0.45647       -0.12457        0.23382
H         -0.49609       -0.22271        1.32435
H         -0.25763       -1.11556       -0.17220
C          0.67426        0.82980       -0.14534
H          0.48703        1.82031        0.27845
H          0.71334        0.94552       -1.23109
H         -2.90373       -0.62235        0.98910
H         -2.01605        1.36405        0.12303
C          2.03418        0.35402        0.33303
H          2.79402        1.10527        0.09803
H          2.01727        0.21606        1.41968
O          2.32262       -0.87672       -0.32781
H          3.17255       -1.19080       -0.00993
