16
0 1
C          2.03473        0.35482        0.32804
H          2.01698        0.21285        1.41386
O          2.32579       -0.87318       -0.33754
C          0.67408        0.82978       -0.14931
H          0.49464        1.82776        0.25999
H          0.70967        0.92835       -1.23708
C         -0.45590       -0.11374        0.25625
H         -0.51638       -0.17492        1.34543
H         -0.25042       -1.11700       -0.11475
H          3.15831       -1.20550        0.00666
H          2.79413        1.10747        0.09569
C         -1.79840        0.34779       -0.27651
H         -2.01330        1.36105        0.08107
H         -1.77052        0.37744       -1.37091
O         -2.79006       -0.56931        0.18087
H         -3.63594       -0.28942       -0.17740
