16
0 1
C          1.39298        0.25181       -0.68530
H          0.79834        1.12132       -0.97958
O          2.21585        0.55752        0.44143
C          0.49249       -0.95648       -0.46056
H         -0.06949       -1.13718       -1.37811
H          1.12065       -1.83037       -0.27915
C         -0.48730       -0.80134        0.70667
H          0.05927       -0.73510        1.65126
H         -1.10991       -1.69510        0.77013
H          1.64205        0.87363        1.14332
H          2.08574        0.04357       -1.49881
C         -1.39680        0.41135        0.59238
H         -2.10444        0.41667        1.42644
H         -0.81380        1.33754        0.64783
O         -2.08293        0.32920       -0.65495
H         -2.68001        1.07918       -0.71429
