16
0 1
C          0.36763        1.90919       -0.00903
H          1.00144        1.95060       -0.89421
O         -0.44457        3.07732       -0.06849
C         -0.44457        0.62121       -0.01194
H         -1.09700        0.60761        0.86729
H         -1.09364        0.62079       -0.89012
C          0.44457       -0.62121       -0.01194
H          1.09700       -0.60761        0.86729
H          1.09364       -0.62079       -0.89012
H         -0.98860        3.08993        0.72350
H          1.02443        1.93437        0.86733
C         -0.36763       -1.90919       -0.00903
H         -1.02443       -1.93437        0.86733
H         -1.00144       -1.95060       -0.89421
O          0.44457       -3.07732       -0.06849
H          0.98860       -3.08993        0.72350
