16
0 1
C          1.37513       -0.14062        0.46808
H          0.89704       -1.05806        0.80523
O          2.63615       -0.54848       -0.05459
C          0.51212        0.55880       -0.57437
H          1.07804        1.39830       -0.98954
H          0.32036       -0.13652       -1.39130
C         -0.80902        1.08821       -0.01136
H         -1.34873        1.61764       -0.80197
H         -0.61415        1.82421        0.77466
H          3.08199        0.24099       -0.37315
H          1.50739        0.50870        1.34187
C         -1.71727        0.00574        0.56552
H         -1.24901       -0.47374        1.42346
H         -2.65062        0.45698        0.91546
O         -1.97927       -1.04933       -0.35601
H         -2.44316       -0.66880       -1.10715
