16
0 1
C         -0.25826        1.54907       -0.42026
H         -1.35297        1.50834       -0.44775
O          0.20115        2.89635       -0.37788
C          0.25826        0.72061        0.75075
H          1.35043        0.73358        0.73615
H         -0.05017        1.20841        1.67988
C         -0.25826       -0.72061        0.75075
H         -1.35043       -0.73358        0.73615
H          0.05017       -1.20841        1.67988
H         -0.12558        3.28517        0.43803
H          0.10801        1.15472       -1.36625
C          0.25826       -1.54907       -0.42026
H         -0.10801       -1.15472       -1.36625
H          1.35297       -1.50834       -0.44775
O         -0.20115       -2.89635       -0.37788
H          0.12558       -3.28517        0.43803
