16
0 1
C          1.55116       -0.40586       -0.30988
H          1.51093       -0.41395       -1.39905
O          2.93247       -0.28791        0.01952
C          0.72486        0.75743        0.22726
H          0.75264        0.74442        1.32195
H          1.20829        1.68265       -0.08950
C         -0.72984        0.74505       -0.25057
H         -0.76820        0.72021       -1.34186
H         -1.21254        1.67613        0.06025
H          3.00400       -0.32815        0.97697
H          1.15459       -1.36274        0.04137
C         -1.54341       -0.42192        0.29767
H         -1.15674       -1.37139       -0.06761
H         -1.47609       -0.43712        1.39172
O         -2.90179       -0.38689       -0.12773
H         -3.27887        0.44014        0.18463
