16
0 1
C         -0.25710        1.55686       -0.41196
H         -1.34716        1.54114       -0.42408
O          0.10124        2.93102       -0.29570
C          0.25710        0.72127        0.75500
H          1.35201        0.71764        0.74197
H         -0.04560        1.21813        1.67787
C         -0.25710       -0.72127        0.75500
H         -1.35201       -0.71764        0.74197
H          0.04560       -1.21813        1.67787
H          1.06062        2.98074       -0.32155
H          0.08891        1.15106       -1.36684
C          0.25710       -1.55686       -0.41196
H         -0.08891       -1.15106       -1.36684
H          1.34716       -1.54114       -0.42408
O         -0.10124       -2.93102       -0.29570
H         -1.06062       -2.98074       -0.32155
