16
0 1
C          0.12335        1.76273       -0.17993
H         -0.80799        2.19537       -0.54598
O         -0.12335        1.42238        1.18210
C          0.51615        0.57052       -1.04649
H          0.66343        0.94532       -2.06183
H          1.48611        0.18924       -0.71406
C         -0.51615       -0.57052       -1.04649
H         -0.66343       -0.94532       -2.06183
H         -1.48611       -0.18924       -0.71406
H          0.61568        0.87556        1.46911
H          0.89644        2.53441       -0.24546
C         -0.12335       -1.76273       -0.17993
H         -0.89644       -2.53441       -0.24546
H          0.80799       -2.19537       -0.54598
O          0.12335       -1.42238        1.18210
H         -0.61568       -0.87556        1.46911
