12
0 1
C          1.20882        0.69791        0.00000
H          2.14980        1.24119        0.00000
C          1.20882       -0.69791        0.00000
H          2.14980       -1.24119        0.00000
C          0.00000       -1.39583        0.00000
H          0.00000       -2.48238        0.00000
C         -1.20882       -0.69791        0.00000
H         -2.14980       -1.24119        0.00000
C         -1.20882        0.69791        0.00000
H         -2.14980        1.24119        0.00000
C          0.00000        1.39583        0.00000
H          0.00000        2.48238        0.00000
