86
0 1
C          0.10121        3.40046        0.62704
C          1.27218        3.13883        1.33913
C          2.43469        2.94395        0.59232
C          2.41760        2.97999       -0.81362
C          1.24507        3.21477       -1.52688
C          0.09456        3.44849       -0.77750
C          3.87374        2.59079        0.99718
C          4.08392        1.15067        0.51586
C          4.04794        1.19050       -0.89057
C          3.83798        2.65484       -1.28004
C          4.17466       -0.05700        1.20648
C          4.21246       -1.22070        0.43978
C          4.16033       -1.17898       -0.96499
C          4.07397        0.02714       -1.65762
C          4.64027        3.34241       -0.13369
C         -1.32307        3.74102        1.07942
C         -1.31956        3.83792       -1.19869
C         -2.25484        2.69310       -0.81386
C         -2.26905        2.63525        0.59089
C         -3.06913        1.87442       -1.59218
C         -3.95417        1.04462       -0.90826
C         -3.98864        0.99577        0.49577
C         -3.12439        1.76906        1.27303
C         -1.65309        4.80959       -0.01707
C         -5.12688        0.03431        0.86844
C         -4.70949       -1.35776        0.39287
C         -4.65175       -1.30181       -1.01370
C         -5.05969        0.11522       -1.41127
C         -4.39578       -2.52601        1.06898
C         -3.99227       -3.64451        0.32066
C         -3.91149       -3.58001       -1.07000
C         -4.24582       -2.39984       -1.75535
C         -6.11637        0.38391       -0.29082
C          4.12132       -2.63072       -1.44548
C          2.76831       -3.17244       -0.97761
C          2.81739       -3.21514        0.42784
C          4.20164       -2.69961        0.83308
C          1.62038       -3.53493       -1.66331
C          0.51113       -3.96587       -0.91867
C          0.55927       -4.00878        0.47380
C          1.71788       -3.62206        1.16613
C          5.03264       -3.27695       -0.35548
H          1.28070        3.10639        2.42632
H          1.23220        3.23820       -2.61377
H          4.15110        2.80173        2.03072
H          4.08128        2.92200       -2.30893
H          4.20050       -0.09240        2.29354
H          4.01235        0.05843       -2.74268
H          4.48798        4.42542       -0.10136
H          5.70647        3.09679       -0.15647
H         -1.43485        4.03489        2.12383
H         -1.42677        4.21695       -2.21571
H         -3.05142        1.91904       -2.67816
H         -3.15206        1.73556        2.35973
H         -0.98544        5.67629        0.02080
H         -2.70256        5.12044       -0.00567
H         -5.49681        0.10276        1.89210
H         -5.36734        0.25432       -2.44811
H         -4.45905       -2.58537        2.15303
H         -3.74005       -4.56960        0.83123
H         -3.59253       -4.45416       -1.63058
H         -4.18178       -2.35636       -2.83926
H         -6.44740        1.42621       -0.26456
H         -6.97080       -0.29889       -0.33897
H          4.37485       -2.80046       -2.49233
H          4.52730       -2.93358        1.84726
H          1.56783       -3.48291       -2.74730
H         -0.40170       -4.25279       -1.43301
H         -0.31571       -4.33184        1.03040
H          1.74259       -3.64564        2.25258
H          6.05759       -2.89426       -0.37969
H          5.02158       -4.37063       -0.38810
C         -0.23555       -0.66692        2.28686
C         -1.32815       -1.18220        1.57332
C         -1.33203       -1.14269        0.18958
C         -0.24277       -0.58054       -0.49381
C          0.85850       -0.08226        0.21543
C          0.85890       -0.12304        1.59976
C         -0.23525       -0.69834        3.71424
C         -0.25203       -0.51939       -1.92066
H         -2.16864       -1.60979        2.10486
H         -2.17018       -1.54401       -0.36496
H          1.70135        0.34001       -0.31668
H          1.70456        0.26579        2.15129
N         -0.23365       -0.72057        4.87727
N         -0.26139       -0.46368       -3.08184
