126
0 1
O         -0.46819       -4.01201        0.33833
O         -4.72171       -4.22921        0.90375
O         -4.95499       -3.00354       -1.26474
H         -5.15193       -3.46864       -0.37793
O         -1.13656       -1.72690       -3.71391
H         -0.14686       -1.60227       -3.54250
O          1.35121       -1.39582       -2.95562
O          4.14154       -2.97747        0.59023
O         -0.43181        4.10761       -0.41152
O         -4.71788        4.09434       -0.57787
O         -4.68420        2.92035        1.63286
H         -4.98585        3.37451        0.77124
O         -0.58288        1.76288        3.65338
H          0.38606        1.67914        3.37348
O          1.83094        1.55150        2.64215
O          4.16191        3.28369       -1.15576
N          5.05587       -1.18307       -0.95176
H          5.04575       -1.93516       -0.21670
N          5.27618        1.46571        0.20767
H          5.16026        2.22922       -0.50765
C         -1.44081       -3.48701       -0.53392
C         -2.82295       -3.57970       -0.31938
C         -3.62171       -2.99411       -1.37024
C         -3.07001       -2.39269       -2.51539
C         -1.67295       -2.32566       -2.63562
C         -0.85736       -2.87448       -1.62479
C          0.62575       -3.17530       -1.57473
C          1.62715       -2.08484       -1.94663
C          2.85693       -2.02954       -1.20276
C          3.04785       -2.91651       -0.03637
C          1.90996       -3.64479        0.51718
H          2.01741       -4.04835        1.51740
C          0.75486       -3.64629       -0.16473
C         -3.47433       -4.23024        0.81157
C         -2.67542       -4.93077        1.88253
H         -3.36850       -5.32657        2.62539
H         -1.96920       -4.24472        2.35713
H         -2.08301       -5.74369        1.44996
C         -3.97303       -1.84387       -3.58674
H         -4.86901       -1.39818       -3.14815
H         -4.31074       -2.64417       -4.25687
H         -3.44492       -1.10413       -4.19114
C          0.94834       -4.37090       -2.54119
H          1.99489       -4.66939       -2.43383
H          0.75979       -4.05257       -3.56933
H          0.30073       -5.21727       -2.30016
C          3.88435       -1.10071       -1.57748
C          3.66380       -0.05215       -2.62445
H          4.49582        0.64725       -2.68431
H          2.75004        0.50225       -2.40359
H          3.50329       -0.52274       -3.59825
C          6.25567       -0.37395       -1.10877
H          6.16958        0.23524       -2.01178
C          7.48411       -1.28782       -1.23802
H          7.54530       -1.92835       -0.34765
H          7.34425       -1.94836       -2.10012
C          8.76952       -0.46411       -1.37991
H          8.73554        0.10175       -2.32093
H          9.63173       -1.13614       -1.44495
C         -1.28330        3.53869        0.55036
C         -2.68339        3.57469        0.47638
C         -3.34707        2.95194        1.59734
C         -2.65783        2.35512        2.66838
C         -1.25150        2.34937        2.64615
C         -0.56568        2.94708        1.57067
C          0.89073        3.32046        1.37757
C          1.97440        2.27580        1.62885
C          3.12403        2.28647        0.76509
C          3.14679        3.17489       -0.41605
C          1.92413        3.84824       -0.84108
H          1.89761        4.23934       -1.85105
C          0.85519        3.80017       -0.03577
C         -3.46565        4.16412       -0.59842
C         -2.81057        4.87163       -1.75914
H         -3.59033        5.18964       -2.45149
H         -2.09912        4.21882       -2.27202
H         -2.24302        5.73922       -1.40619
C         -3.42057        1.75752        3.81999
H         -4.31390        1.23691        3.46807
H         -3.75222        2.54170        4.51170
H         -2.78596        1.06578        4.37630
C          1.24981        4.52223        2.32166
H          1.17920        4.18875        3.35987
H          0.54266        5.33870        2.15626
H          2.26527        4.87207        2.11599
C          4.20341        1.37430        0.99040
C          4.15284        0.32740        2.06340
H          5.04270       -0.29904        2.06956
H          3.27964       -0.31052        1.92074
H          4.02367        0.79951        3.03959
C          6.42731        0.58305        0.10187
H          6.51132       -0.02664        1.00523
C          7.70859        1.41403       -0.05858
H          7.81102        2.07633        0.80738
H          7.60677        2.05542       -0.94465
C          8.93682        0.50862       -0.20659
H          9.83272        1.12306       -0.34466
H          9.08197       -0.06088        0.72161
O          0.93506       -2.68275        4.79262
O         -1.18988       -2.82169        5.30558
O         -4.66111       -0.81940        1.75854
O         -5.93797        1.45444       -2.85198
O         -4.29807        2.34759       -3.99952
O          0.14892        1.57008       -2.89316
O          0.78005        0.88338       -0.92701
N         -0.26228       -2.47900        4.56800
N         -4.74965        1.70310       -3.04934
N         -0.08841        1.10339       -1.77963
C         -1.21794       -0.47659        0.93154
C          0.11289       -0.73836        1.25852
H          0.91948       -0.44528        0.60840
C          0.40602       -1.39100        2.45709
H          1.43025       -1.59759        2.73887
C         -0.61448       -1.78160        3.31461
C         -1.95731       -1.55120        3.02025
H         -2.74799       -1.86620        3.69111
C         -2.23005       -0.90978        1.82796
C         -3.56848       -0.58587        1.27489
C         -3.28868        0.09194       -0.02449
C         -4.24382        0.57026       -0.89989
H         -5.30190        0.47412       -0.68746
C         -3.78023        1.17683       -2.06327
C         -2.42925        1.30548       -2.33101
H         -2.09414        1.77748       -3.24449
C         -1.48815        0.82791       -1.41543
C         -1.88593        0.18211       -0.23059
