122
1 1
O         -3.18787        0.04715        3.67138
O          2.88538       -0.07598        3.16255
O         -3.17463       -2.93701        1.77510
O          2.90868       -3.05697        1.66126
O         -3.14760        2.99934       -1.82130
O          2.99071        3.14097       -1.62938
O         -3.14760        2.99934        1.82130
O          2.99071        3.14097        1.62938
O         -3.17463       -2.93701       -1.77510
O          2.88538       -0.07598       -3.16255
O         -3.18787        0.04715       -3.67138
O          2.90868       -3.05697       -1.66126
N          3.17781       -0.76709        0.00000
N          1.15988       -1.13623        4.30440
N          1.17952        1.09171        4.23643
N         -1.33501       -3.20974       -3.17691
N         -1.27022        1.14544        4.41040
N         -1.36939       -4.29979       -1.21949
N          1.08273       -4.42592       -1.22277
N         -1.29117       -1.09405        4.39542
N          1.12029       -3.27255       -3.12777
N         -1.27022        1.14544       -4.41040
N          1.08273       -4.42592        1.22277
N          1.12029       -3.27255        3.12777
N         -1.33501       -3.20974        3.17691
N         -1.36939       -4.29979        1.21949
N         -1.29117       -1.09405       -4.39542
N         -1.30201        3.27963        3.21309
N          1.15988       -1.13623       -4.30440
N         -1.30519        4.29066        1.21573
N          1.14706        4.50603        1.22456
N          1.14706        4.50603       -1.22456
N          1.14839        3.21362        3.04582
N          1.17952        1.09171       -4.23643
N          1.14839        3.21362       -3.04582
N         -1.30201        3.27963       -3.21309
N         -1.30519        4.29066       -1.21573
C         -0.17473       -4.79561       -1.85776
C         -0.11890        4.81671       -1.85902
C         -0.05897        4.01013       -3.20152
C         -2.04869        3.45593       -2.04850
C         -1.80495        2.49225        4.31846
C          1.74687        2.41720        4.09143
C          1.88718        3.56502       -1.92282
C          1.85296       -0.03912       -3.81646
C          1.88718        3.56502        1.92282
C         -2.04869        3.45593        2.04850
C          1.64382        5.10018        0.00000
C         -1.88488        4.82330        0.00000
C         -0.13493       -4.00764        3.21373
C         -0.17473       -4.79561        1.85776
C         -0.05897        4.01013        3.20152
C         -2.08826       -3.41059        2.02110
C         -0.11890        4.81671        1.85902
C         -1.85287       -2.42265       -4.28191
C          1.81412       -3.52495        1.96727
C          1.69143       -2.47246       -4.19462
C         -2.05264        0.03687       -4.09215
C          1.74687        2.41720       -4.09143
C          1.60153       -5.00227        0.00000
C         -1.94355       -4.83175        0.00000
C         -0.00924        0.79203        5.01864
C         -0.03822       -0.77515        5.03920
C         -1.80495        2.49225       -4.31846
C         -2.05264        0.03687        4.09215
C          1.81412       -3.52495       -1.96727
C         -2.08826       -3.41059       -2.02110
C          1.85296       -0.03912        3.81646
C         -0.13493       -4.00764       -3.21373
C         -0.00924        0.79203       -5.01864
C         -0.03822       -0.77515       -5.03920
C          1.69143       -2.47246        4.19462
C         -1.85287       -2.42265        4.28191
C          2.02480        0.21049        0.00000
C          0.68196       -0.51020        0.00000
C         -0.47426        0.49644        0.00000
H         -1.44180       -0.01145        0.00000
H          2.15740        0.83040        0.88656
H         -2.88182        2.38392       -4.16297
H         -0.21940       -5.88575       -1.98303
H         -0.12398       -4.65622       -4.09973
H          2.75803       -2.37958       -3.97762
H          1.53788       -2.99514       -5.14648
H         -2.92294       -2.29049       -4.09831
H         -1.68619       -2.97285       -5.21714
H         -0.20743        5.90228        2.00408
H          0.02143        4.64809        4.09267
H          1.65534        2.94176        5.05205
H          2.79902        2.29049        3.82348
H         -1.60108        3.02439        5.25616
H         -2.88182        2.38392        4.16297
H          0.02143        4.64809       -4.09267
H         -0.20743        5.90228       -2.00408
H          2.72683        4.95581        0.00000
H          1.39741        6.16800        0.00000
H         -2.93877        4.52995        0.00000
H         -1.78876        5.91805        0.00000
H         -0.12398       -4.65622        4.09973
H         -0.21940       -5.88575        1.98303
H          1.38888       -6.07781        0.00000
H          2.67961       -4.82673        0.00000
H         -1.84387       -5.92536        0.00000
H         -2.99813       -4.54118        0.00000
H          0.07873        1.24290        6.01655
H          0.00034       -1.20279        6.05054
H          2.75803       -2.37958        3.97762
H          1.53788       -2.99514        5.14648
H         -2.92294       -2.29049        4.09831
H         -1.68619       -2.97285        5.21714
H         -1.60108        3.02439       -5.25616
H          2.79902        2.29049       -3.82348
H          1.65534        2.94176       -5.05205
H          0.07873        1.24290       -6.01655
H          0.00034       -1.20279       -6.05054
H          3.15179       -1.39188       -0.83019
H          4.06472       -0.25732        0.00000
H          3.15179       -1.39188        0.83019
H         -0.43066        1.13869       -0.88545
H         -0.43066        1.13869        0.88545
H          0.60738       -1.15744       -0.88248
H          0.60738       -1.15744        0.88248
H          2.15740        0.83040       -0.88656
