17
1 1
C         -2.45685       -0.69888        0.00000
C         -1.34001        0.34907        0.00000
C          0.05502       -0.30213        0.00000
C          1.14587        0.75658        0.00000
N          2.53744        0.09969        0.00000
H          2.65567       -0.49682        0.82788
H          3.29236        0.79632        0.00000
H          2.65567       -0.49682       -0.82788
H         -3.43502       -0.21167        0.00000
H         -2.39841       -1.33816       -0.88704
H         -2.39841       -1.33816        0.88704
H         -1.43466        0.99547        0.88131
H         -1.43466        0.99547       -0.88131
H          0.15862       -0.94328        0.88606
H          0.15862       -0.94328       -0.88606
H          1.11937        1.38830        0.89072
H          1.11937        1.38830       -0.89072
