32
0 1
C 10.37400 21.44300 10.31100
H 9.934000 21.48700 9.305000
C 9.280000 21.86400 11.28300
H 8.982000 22.89200 11.04700
H 8.438000 21.18400 11.17100
H 9.688000 21.81300 12.29800
C 11.56200 22.42400 10.37400
H 12.42800 21.94400 9.922000
H 11.32000 23.31700 9.801000
C 11.94400 22.85500 11.78700
H 12.79300 23.53700 11.72100
H 11.08500 23.36200 12.24600
H 12.21000 21.96700 12.37000
H 10.70966 20.41678 10.52123
C 10.60200 24.81800 6.466000
O 10.95600 23.84000 7.103000
N 10.17800 25.94300 7.070000
C 10.09100 26.25600 8.476000
C 9.372000 27.59000 8.640000
C 11.44600 26.35600 9.091000
C 9.333000 25.25000 9.282000
H 9.874000 26.68900 6.497000
H 9.908000 28.37100 8.093000
H 8.364000 27.46400 8.233000
H 9.317000 27.84600 9.706000
H 9.807000 24.28200 9.160000
H 9.371000 25.57400 10.32900
H 8.328000 25.26700 8.900000
H 11.28800 26.57600 10.14400
H 11.97000 27.14900 8.585000
H 11.93200 25.39300 8.957000
H 10.61998 24.85900 5.366911
