30
0 1
C 15.27800 30.38900 2.305000
O 14.37900 30.99200 1.712000
N 15.20400 29.08900 2.640000
H 15.90100 28.63400 3.249000
C 14.02400 28.31500 2.332000
H 13.65700 28.66700 1.375000
H 14.32500 27.27400 2.236000
C 12.93200 28.48000 3.398000
O 11.76000 28.20200 3.138000
N 13.27200 28.98600 4.593000
H 14.23600 29.23200 4.806000
H 12.53585 29.15009 5.393723
H 16.18758 30.94244 2.581356
C 14.25800 24.02900 5.093000
O 15.51000 24.53800 4.641000
C 13.12200 24.97500 4.578000
N 11.86200 24.24500 4.359000
C 11.78200 23.78100 2.948000
C 10.62700 24.87500 4.938000
H 15.42000 24.70300 3.667000
H 14.02700 23.02800 4.754000
H 12.93300 25.79400 5.257000
H 13.40100 25.40500 3.596000
H 10.49500 25.96800 4.694000
H 12.00900 24.60600 2.286000
H 12.53400 23.01100 2.841000
H 10.60902 24.83400 6.037089
H 9.792144 24.23767 4.611163
H 10.82891 23.34622 2.612456
H 14.36576 23.85731 6.174161
