24
0 1
C 4.290000 24.10300 10.08600
O 4.354000 23.13400 10.84900
N 4.507000 24.01000 8.777000
H 4.471000 24.81400 8.166000
C 4.858000 22.75500 8.154000
H 4.799000 21.96700 8.885000
H 4.136000 22.58200 7.364000
C 6.276000 22.76600 7.611000
O 6.647000 23.71300 6.921000
N 7.066000 21.74000 7.938000
H 6.754000 21.01200 8.573000
H 4.054781 25.09671 10.49492
H 8.028304 21.54906 7.440493
C 6.218000 24.82200 2.171000
C 6.715000 23.76400 2.930000
C 5.918000 23.22600 3.934000
C 4.663000 23.78000 4.166000
C 4.226000 24.84700 3.389000
N 4.990000 25.38300 2.391000
H 6.798000 25.19700 1.318000
H 3.211000 25.24700 3.575000
H 4.018000 23.38100 4.943000
H 6.274000 22.37100 4.504000
H 7.673767 23.27955 2.693205
