13
0 1
C 4.290000 24.10300 10.08600
O 4.354000 23.13400 10.84900
N 4.507000 24.01000 8.777000
H 4.471000 24.81400 8.166000
C 4.858000 22.75500 8.154000
H 4.799000 21.96700 8.885000
H 4.136000 22.58200 7.364000
C 6.276000 22.76600 7.611000
O 6.647000 23.71300 6.921000
N 7.066000 21.74000 7.938000
H 6.754000 21.01200 8.573000
H 4.054781 25.09671 10.49492
H 8.028304 21.54906 7.440493
