11
0 1
C 13.79100 17.02500 -2.243000
H 12.90600 17.67000 -2.286000
C 13.29600 15.57900 -2.178000
H 12.68500 15.45200 -1.281000
H 12.69000 15.37300 -3.075000
H 14.15900 14.91000 -2.152000
C 14.52700 17.45100 -0.990000
H 13.87200 17.32300 -0.127000
H 15.43100 16.85400 -0.884000
H 14.78900 18.51600 -1.107000
H 14.41225 17.12759 -3.144954
