21
-1 1
C 17.05600 28.65300 6.834000
H 17.72900 28.22900 7.569000
H 16.32100 29.27500 7.342000
C 16.35100 27.45400 6.256000
O 16.17800 26.43900 6.902000
O 15.98200 27.55700 4.965000
H 15.73800 26.67800 4.650000
C 16.27300 25.57900 0.088000
H 16.75700 24.66100 -0.278000
H 15.39700 25.75100 -0.577000
C 15.87600 25.38300 1.569000
O 16.42900 26.07300 2.466000
O 14.98200 24.56700 1.861000
H 17.61665 29.26091 6.108662
H 16.97158 26.42544 0.013713047
C 14.25800 24.02900 5.093000
O 15.51000 24.53800 4.641000
H 15.42000 24.70300 3.667000
H 14.02700 23.02800 4.754000
H 13.45976 24.69373 4.731124
H 14.36576 23.85731 6.174161
