23
0 1
C 13.79100 17.02500 -2.243000
H 12.90600 17.67000 -2.286000
C 13.29600 15.57900 -2.178000
H 12.68500 15.45200 -1.281000
H 12.69000 15.37300 -3.075000
H 14.15900 14.91000 -2.152000
C 14.52700 17.45100 -0.990000
H 13.87200 17.32300 -0.127000
H 15.43100 16.85400 -0.884000
H 14.78900 18.51600 -1.107000
H 14.41225 17.12759 -3.144954
C 16.51300 18.99700 4.107000
C 17.41000 17.97200 3.810000
C 17.48600 17.37200 2.527000
C 16.60600 17.86100 1.547000
C 15.70300 18.89200 1.854000
C 15.65400 19.47000 3.123000
H 14.96900 20.29200 3.327000
H 15.03200 19.27500 1.092000
H 16.61400 17.45600 0.523000
H 18.19800 16.55200 2.242000
H 18.01270 17.77884 4.709692
H 16.61088 19.36781 5.137980
