12
0 1
C 10.62700 24.87500 4.938000
C 10.60200 24.81800 6.466000
O 10.95600 23.84000 7.103000
N 10.17800 25.94300 7.070000
C 10.09100 26.25600 8.476000
H 9.874000 26.68900 6.497000
H 10.49500 25.96800 4.694000
H 11.53119 24.41376 4.514093
H 9.792144 24.23767 4.611163
H 9.533425 25.51600 9.068883
H 9.572130 27.21869 8.594352
H 11.09040 26.32976 8.929603
