12
0 1
C	0.000000 0.000000 1.372056
C	0.000000 1.212582 0.696145
C	0.000000 1.212582 -0.696145
C	0.000000 0.000000 -1.372056
C	0.000000 -1.212582 -0.696145
C	0.000000 -1.212582 0.696145
F	0.000000 0.000000 2.710296
F	0.000000 0.000000 -2.710296
H	0.000000 2.138076 1.259196
H	0.000000 2.138076 -1.259196
H	0.000000 -2.138076 -1.259196
H	0.000000 -2.138076 1.259196
