14
0 1
H	0.558312 1.155616 2.024144
H	0.558312 1.155616 -2.024144
C	0.000000 -0.762757 1.168827
C	0.000000 -0.762757 -1.168827
H	-0.558312 -1.155616 -2.024144
C	0.000000 0.762757 -1.168827
C	0.000000 0.762757 1.168827
H	1.038503 -1.128958 1.226358
H	1.038503 -1.128958 -1.226358
O	-0.631966 -1.262067 0.000000
H	-1.038503 1.128958 -1.226358
H	-1.038503 1.128958 1.226358
O	0.631966 1.262067 0.000000
H	-0.558312 -1.155616 2.024144
