10
0 1
O	0.000000 0.000000 1.398005
C	0.000000 0.000000 0.189359
C	0.000000 1.290161 -0.614232
C	0.000000 -1.290161 -0.614232
H	0.000000 2.147717 0.059348
H	0.000000 -2.147717 0.059348
H	-0.879355 1.333032 -1.267025
H	0.879355 1.333032 -1.267025
H	0.879355 -1.333032 -1.267025
H	-0.879355 -1.333032 -1.267025
