18
0 1
C	-2.174656 1.605746 0.000000
C	-0.844972 2.050513 0.000000
C	-2.209019 0.203948 0.000000
C	0.000000 0.930824 0.000000
C	-0.890272 -0.274574 0.000000
C	1.387828 0.951561 0.000000
C	-0.500623 -1.606958 0.000000
C	2.283865 -0.116405 0.000000
C	0.784198 -2.148037 0.000000
C	2.009460 -1.483058 0.000000
H	-3.045837 2.249269 0.000000
H	-0.513424 3.079842 0.000000
H	-3.095484 -0.415360 0.000000
H	1.836554 1.943909 0.000000
H	-1.316337 -2.328595 0.000000
H	3.336741 0.152006 0.000000
H	0.838230 -3.233235 0.000000
H	2.884711 -2.129199 0.000000
