12
0 1
C	0.000000 0.000000 1.445056
C	0.000000 0.000000 -1.445056
O	0.000000 0.000000 2.662996
O	0.000000 0.000000 -2.662996
C	0.000000 1.266751 0.669452
C	0.000000 -1.266751 0.669452
C	0.000000 -1.266751 -0.669452
C	0.000000 1.266751 -0.669452
H	0.000000 2.178129 1.258744
H	0.000000 -2.178129 1.258744
H	0.000000 -2.178129 -1.258744
H	0.000000 2.178129 -1.258744
