10
0 1
C	0.000000 1.135138 0.314624
C	0.000000 -1.135138 0.314624
C	0.743273 0.000000 -0.321546
C	-0.743273 0.000000 -0.321546
H	0.000000 1.235510 1.402410
H	0.000000 2.083685 -0.217775
H	0.000000 -1.235510 1.402410
H	0.000000 -2.083685 -0.217775
H	1.441145 0.000000 -1.143103
H	-1.441145 0.000000 -1.143103
