10
0 2
C	0.011464 0.533613 0.000000
C	0.011464 -0.196938 1.299298
C	0.011464 -0.196938 -1.299298
H	-0.236191 1.591063 0.000000
H	0.262576 0.458771 2.138978
H	0.262576 0.458771 -2.138978
H	-0.973254 -0.642461 1.528548
H	0.725596 -1.031050 1.293345
H	-0.973254 -0.642461 -1.528548
H	0.725596 -1.031050 -1.293345
