16
0 1
C	1.568570 0.668923 -0.368893
C	1.568570 -0.668923 -0.368893
C	-1.568570 -0.668923 -0.368893
C	-1.568570 0.668923 -0.368893
C	0.668919 -1.568477 0.368868
C	-0.668919 -1.568477 0.368868
C	-0.668919 1.568477 0.368868
C	0.668919 1.568477 0.368868
H	2.366014 1.170724 -0.916956
H	2.366014 -1.170724 -0.916956
H	-2.366014 -1.170724 -0.916956
H	-2.366014 1.170724 -0.916956
H	1.170686 -2.365831 0.917106
H	-1.170686 -2.365831 0.917106
H	-1.170686 2.365831 0.917106
H	1.170686 2.365831 0.917106
