18
0 1
C	-1.269340 0.732854 0.229778
C	0.000000 -1.465708 0.229778
C	1.269340 0.732854 0.229778
C	0.000000 1.465708 -0.229778
C	-1.269340 -0.732854 -0.229778
C	1.269340 -0.732854 -0.229778
H	-1.326984 0.766135 1.327026
H	-2.161963 1.248210 -0.143145
H	0.000000 -1.532269 1.327026
H	0.000000 -2.496419 -0.143145
H	1.326984 0.766135 1.327026
H	2.161963 1.248210 -0.143145
H	0.000000 1.532269 -1.327026
H	0.000000 2.496419 0.143145
H	-1.326984 -0.766135 -1.327026
H	-2.161963 -1.248210 0.143145
H	1.326984 -0.766135 -1.327026
H	2.161963 -1.248210 0.143145
