11
0 1
C	0.000000 0.492905 0.000000
O	-1.173657 0.765063 0.000000
O	0.472064 -0.772469 0.000000
C	1.137264 1.485368 0.000000
C	-0.528822 -1.798386 0.000000
H	0.735128 2.497545 0.000000
H	1.767841 1.333575 0.880532
H	1.767841 1.333575 -0.880532
H	0.014674 -2.743345 0.000000
H	-1.161693 -1.720715 0.887615
H	-1.161693 -1.720715 -0.887615
