14
0 1
H	-0.618380 3.119145 0.883825
C	-1.171540 2.783536 0.000000
H	-2.140705 3.291408 0.000000
C	-1.343009 1.261834 0.000000
H	-0.618380 3.119145 -0.883825
H	-1.928898 0.958673 0.877550
C	0.000000 0.517387 0.000000
H	-1.928898 0.958673 -0.877550
H	0.587435 0.806270 0.879057
H	0.587435 0.806270 -0.879057
C	-0.191393 -0.991442 0.000000
H	-0.724727 -1.335383 0.887856
Cl	1.396794 -1.871571 0.000000
H	-0.724727 -1.335383 -0.887856
