23
0 1
C	0.000000 0.000000 0.495659
C	0.000000 1.281514 -0.344142
C	0.000000 -1.281514 -0.344142
C	0.000000 2.564063 0.494625
C	0.000000 -2.564063 0.494625
C	0.000000 3.838978 -0.353189
C	0.000000 -3.838978 -0.353189
H	-0.877153 0.000000 1.157954
H	0.877153 0.000000 1.157954
H	-0.877065 1.282250 -1.006674
H	0.877065 1.282250 -1.006674
H	0.877065 -1.282250 -1.006674
H	-0.877065 -1.282250 -1.006674
H	0.876702 2.563263 1.155959
H	-0.876702 2.563263 1.155959
H	-0.876702 -2.563263 1.155959
H	0.876702 -2.563263 1.155959
H	-0.883427 3.883997 -0.999955
H	0.883427 3.883997 -0.999955
H	0.883427 -3.883997 -0.999955
H	-0.883427 -3.883997 -0.999955
H	0.000000 4.737058 0.272645
H	0.000000 -4.737058 0.272645
