15
0 1
C	0.000000 0.016261 0.000000
O	-0.443839 1.380637 0.000000
C	1.527748 0.101187 0.000000
C	-0.507787 -0.691385 1.264503
C	-0.507787 -0.691385 -1.264503
H	-1.407097 1.373536 0.000000
H	1.975103 -0.897143 0.000000
H	1.876898 0.639712 0.885539
H	1.876898 0.639712 -0.885539
H	-0.144641 -1.722941 1.320577
H	-1.603926 -0.725359 1.277233
H	-0.173504 -0.156192 2.157825
H	-0.144641 -1.722941 -1.320577
H	-1.603926 -0.725359 -1.277233
H	-0.173504 -0.156192 -2.157825
