18
0 1
H	-0.595296 2.492692 0.000000
H	-1.697206 1.415381 0.885317
H	-1.697206 1.415381 -0.885317
H	0.250250 0.361654 2.159395
H	1.663377 -0.251907 1.278182
H	1.342627 1.481329 1.322781
O	-0.778814 -0.809533 0.000000
C	0.000000 0.397648 0.000000
C	0.866674 0.497588 1.265652
C	-1.061225 1.502906 0.000000
C	0.866674 0.497588 -1.265652
H	1.663377 -0.251907 -1.278182
H	1.342627 1.481329 -1.322781
H	0.250250 0.361654 -2.159395
C	-0.090914 -2.038418 0.000000
H	-0.856227 -2.819463 0.000000
H	0.538344 -2.176876 0.890815
H	0.538344 -2.176876 -0.890815
