16
0 1
O	0.000000 1.425994 0.000000
C	0.060165 -1.466654 0.000000
C	-0.351066 0.716590 1.176787
C	-0.351066 0.716590 -1.176787
C	0.357923 -0.637560 1.258413
C	0.357923 -0.637560 -1.258413
H	-1.445225 0.566777 1.212225
H	-0.075339 1.362774 2.015528
H	-1.445225 0.566777 -1.212225
H	-0.075339 1.362774 -2.015528
H	1.438016 -0.464178 1.341523
H	0.041826 -1.167568 2.164413
H	1.438016 -0.464178 -1.341523
H	0.041826 -1.167568 -2.164413
H	0.638404 -2.396708 0.000000
H	-1.000228 -1.755284 0.000000
