11
0 1
  H   -2.456404762   1.602310352   0.000000000
  H   -1.249575747  -0.566175388   0.000000000
  C   -0.633618250   2.753674197   0.000000000
  C   -1.376396919   1.581781693   0.000000000
  C   -0.700504509   0.367668002   0.000000000
  N    0.628514058   0.269030062   0.000000000
  C    1.332408858   1.400670544   0.000000000
  C    0.751141680   2.662537124   0.000000000
  H    2.410332061   1.293973718   0.000000000
  H    1.371273501   3.547048557   0.000000000
  H   -1.123076565   3.717408329   0.000000000
