7
0 1
  N    0.721365609  -1.607009424   0.000000000
  H    1.213726123  -1.948460868   0.814448910
  H    1.213726123  -1.948460868  -0.814448910
  C   -0.674712311  -2.050525389   0.000000000
  H   -1.176870093  -1.646118648  -0.877537922
  H   -0.807108049  -3.136701225   0.000000000
  H   -1.176870093  -1.646118648   0.877537922
