7
0 1
  H   -2.284161114   1.056017835  -0.680766335
  H   -2.964398533   0.087622547   0.658365104
  H   -1.293380626   0.725381176   0.776117483
  C   -2.065471799   0.345997056   0.112512098
  O   -1.612426343  -0.910734867  -0.483136623
  C   -0.507373665  -0.851899004  -1.127468809
  N    0.490914288  -0.833595431  -1.708824434
