15
0 1
  H   -0.000001751  -1.212907688   0.000000000
  F   -0.000003522  -2.192357204   0.000000000
  H   -0.738366490   1.749245143  -1.278886190
  H   -0.184946908   0.266228670  -2.085097026
  H   -1.713274978   0.266229274  -1.202713111
  H   -1.713274978   0.266229274   1.202713111
  H   -0.738366490   1.749245143   1.278886190
  H   -0.184946908   0.266228670   2.085097026
  H    1.476737305   1.749242830   0.000000000
  H    1.898220707   0.266226656   0.882381628
  C   -0.697357876   0.655104032  -1.207858275
  N    0.000000919   0.215400821   0.000000000
  C   -0.697357876   0.655104032   1.207858275
  C    1.394718778   0.655102395   0.000000000
  H    1.898220707   0.266226656  -0.882381628
