9
0 1
  H    0.297566448  -0.717849564   0.000000000
 Br   -0.085272120  -2.108519111   0.000000000
  H   -1.436102481   4.029622235   0.895536333
  H   -0.808037122   5.443724843   0.000000000
  H   -1.436102481   4.029622235  -0.895536333
  C   -0.921881113   4.367018335   0.000000000
  O    0.442272971   3.842467954   0.000000000
  C    0.547231132   2.568335869   0.000000000
  N    0.682349111   1.423312747   0.000000000
