9
0 1
  H    0.297566448  -0.717849564   0.000000000
 Br   -0.085272120  -2.108519111   0.000000000
  H   -1.541043207   3.445668878   0.895536333
  H   -0.912977848   4.859771486   0.000000000
  H   -1.541043207   3.445668878  -0.895536333
  C   -1.026821839   3.783064978   0.000000000
  O    0.337332245   3.258514597   0.000000000
  C    0.442290406   1.984382512   0.000000000
  N    0.577408385   0.839359390   0.000000000
