9
0 1
  H    0.605915701   0.162904659  -0.307556747
  H    2.150876743   0.627823125   0.784025773
  S    1.243552707   1.292942979   0.054646191
  O   -2.139863127  -3.049124997  -0.608608553
  H   -2.426530390  -3.571083820  -1.360734759
  C   -3.260695882  -2.760245724   0.223539020
  H   -2.899085089  -2.113857167   1.018869854
  H   -4.046503162  -2.233214458  -0.321964280
  H   -3.676269981  -3.667301275   0.667847152
