13
0 1
  H    0.576809073  -1.955916470   0.000000000
  F    0.003549381  -2.709931439   0.000000000
  H   -1.214697434   2.530231195   1.387041896
  H    0.246067596   2.034131782   2.281766459
  H   -0.683433683   0.810254591   1.372224497
  H   -0.683433683   0.810254591  -1.372224497
  H    0.246067596   2.034131782  -2.281766459
  H   -1.214697434   2.530231195  -1.387041896
  O    1.042830674   3.570667402   0.000000000
  S    0.674695432   2.181993085   0.000000000
  O    1.736249731   1.183787832   0.000000000
  C   -0.368437317   1.849678999   1.404017025
  C   -0.368437317   1.849678999  -1.404017025
