9
0 1
  H    0.406762108   0.133290130  -1.762928283
  F    0.361002338   0.018437823  -2.690592045
  H   -0.656246775  -0.225305302   2.727929370
  H    1.101147836  -0.098533444   2.363271956
  H    0.074705549   1.343333032   2.235432951
  C    0.104038995   0.263221390   2.133498819
  N   -0.156447728  -0.049666950   0.696040046
  O    0.629661949   0.438369738  -0.111722568
  O   -1.102663683  -0.748155074   0.415466695
