10
0 1
  H   -0.837394627  -0.292150111  -1.951062696
  F   -0.514885231   0.312438340  -2.596995252
  H   -1.908448227  -1.529776758   1.818519841
  H    1.544264899  -2.047507994   2.603056642
  H    0.106704023   0.734782733   0.583710320
  P   -0.013695069  -0.588429017   2.299327552
  O   -0.434596693  -0.518466920   3.689939640
  O   -1.064566605  -1.419324515   1.366575218
  O    0.155867689   0.779964864   1.552628138
  O    1.354600689  -1.328545737   1.991574792
