11
0 1
  H   -0.210563935   0.623845157   0.000000000
 Cl    0.030262919   1.919061317   0.000000000
  H   -0.281284280  -0.879780411   2.024535962
  H   -0.053477440  -2.460025526   1.239102070
  H    1.262508594  -1.258170551   1.225881103
  H   -0.281284280  -0.879780411  -2.024535962
  H   -0.053477440  -2.460025526  -1.239102070
  H    1.262508594  -1.258170551  -1.225881103
  C    0.178199102  -1.393554434   1.185132717
  O   -0.360849792  -0.827286866   0.000000000
  C    0.178199102  -1.393554434  -1.185132717
