13
0 1
  H    0.677392394   1.621702208   0.000000000
 Cl   -0.001716351   2.739716399   0.000000000
  H   -1.547074970  -2.257805032  -1.388755889
  H   -0.077354956  -1.785900256  -2.281738262
  H   -0.987262378  -0.548215920  -1.372970259
  H   -0.987262378  -0.548215920   1.372970259
  H   -0.077354956  -1.785900256   2.281738262
  H   -1.547074970  -2.257805032   1.388755889
  O    0.673444598  -3.347245008   0.000000000
  S    0.348756030  -1.946828588   0.000000000
  O    1.432648434  -0.977967774   0.000000000
  C   -0.688697076  -1.592577886  -1.403732425
  C   -0.688697076  -1.592577886   1.403732425
