7
0 1
  H    0.871142764  -2.312108758   0.000000000
 Cl    0.307298170  -3.478726849   0.000000000
  P    0.330879637   0.997857924   0.000000000
 Cl   -0.894458972   0.888590989   1.584057720
 Cl   -0.894458972   0.888590989  -1.584057720
 Cl    0.983059765   2.895790738   0.000000000
  O    1.401480668   0.007524861   0.000000000
