7
0 1
  H    0.871142764  -2.312108758   0.000000000
 Cl    0.307298170  -3.478726849   0.000000000
  P    0.224812056   0.533931200   0.000000000
 Cl   -1.000526553   0.424664265   1.584057720
 Cl   -1.000526553   0.424664265  -1.584057720
 Cl    0.876992184   2.431864014   0.000000000
  O    1.295413087  -0.456401863   0.000000000
