7
0 1
  H   -0.163536921  -0.330059341  -0.667407782
 Br   -0.404759841   0.050558093  -2.024235094
 Cl   -0.544041715  -1.642055178   2.258651467
  O   -1.735640375  -1.019124889   2.776906798
  O   -0.764198780  -2.606206403   1.223784578
  O    0.202069403  -0.362828435   1.336518044
  H   -0.070106015   0.458101664   1.776074477
