12
0 1
  H   -0.214481803   0.209632281  -0.812159610
 Br    0.536944582  -0.601473979  -1.791779043
  H    1.428669355  -0.582723445   1.250664127
  H    1.159903704  -0.405083159   3.005395931
  H    1.468837753   1.042100602   1.984597322
  H   -2.206793902   1.624128410   2.894818010
  H   -0.546021369   2.274603025   2.862968757
  C    1.016550583   0.053755568   2.029142101
  S   -0.754618120   0.198126186   1.695092594
  O   -0.876351320   0.976998372   0.411351792
  C   -1.152784889   1.382113959   2.998594419
  H   -0.969516746   0.922133175   3.967629266
