8
0 1
  H    0.420860164  -0.040816655   0.328447977
 Br   -0.175784307   0.059859923  -0.997558702
  O    1.098429295  -0.247194272   2.437339096
  H    1.472277875  -1.122567910   2.567492022
  C   -0.025802636  -0.074326336   3.306770746
  H   -0.417019992   0.919729078   3.111959039
  H   -0.806818814  -0.807728790   3.101808994
  H    0.276250838  -0.139474284   4.352306014
