12
0 1
  H   -0.043982742  -0.193474314  -0.260336338
  I   -0.800444696  -0.505838751  -1.684073242
  H   -0.925042208  -2.241357783   2.661649998
  H   -1.419406446  -1.549760265   1.093295015
  H   -1.893315761  -0.782006902   2.620653591
  H    1.623871022   0.479213480   3.327262845
  H    1.238438713  -1.196487569   3.778348768
  C   -1.096611340  -1.320759313   2.103565677
  C    0.145685022  -0.467757639   2.098575583
  O    0.588027127   0.029084164   1.082660375
  C    0.825353544  -0.249301550   3.425914118
  H    0.104665248   0.079136028   4.175538757
