7
0 1
  H   -0.220400800   0.435720945  -1.006476719
  I   -0.542220943  -0.870537170  -1.898724404
 Br   -1.081577619  -1.258347976   1.954996925
  O   -0.682472148  -1.554874993   3.494495999
  O   -2.615536833  -0.785547611   1.846699547
  O   -0.121233068   0.286572690   1.630685768
  H    0.007347743   0.673887003   2.512292239
