7
0 1
  H    0.007478603   0.065599768  -0.422887203
  I    0.140066758   1.105359789  -1.659105263
  P   -0.481564868   0.148336639   3.538055742
 Cl   -2.060081228   1.344596045   3.207041785
 Cl    1.083268780   1.405643473   3.590885954
 Cl   -0.703054816  -0.444972450   5.445740857
  O   -0.344036368  -0.944647898   2.585314884
