11
0 1
  H   -1.132468560   1.075072573   0.000000000
  H    2.225816833  -2.140100559   0.000000000
  C   -1.591013184  -1.001562043   0.000000000
  C   -0.717703623   0.075086619   0.000000000
  P    1.010339780  -0.044904682   0.000000000
  C    1.209585598  -1.766025441   0.000000000
  C    0.174567899  -2.688535394   0.000000000
  C   -1.168441967  -2.326775220   0.000000000
  H    0.418823189  -3.743769185   0.000000000
  H   -1.915057398  -3.108663134   0.000000000
  H   -2.656386195  -0.805986612   0.000000000
