14
0 1
  H    2.446385827   1.511275980   2.786009253
  H    3.408434957   1.466660885   1.309498916
  H    1.754210914   2.097159409   1.275828658
  H    0.938134552  -2.575492459  -0.004458996
  H    2.889292265   0.031984112  -1.911460634
  H    0.332287181  -1.708943478  -1.422897813
  H    1.972147004  -2.332913225  -1.417737930
  H    2.424669487   1.386116524  -0.879443845
  H    1.244259554   0.625681360  -1.951763398
  P    1.761758151  -0.382780914   1.430110897
  C    1.703682094  -0.562029058  -0.238931125
  C    1.207455095  -1.870697198  -0.788569981
  C    2.089826625   0.436875368  -1.285205550
  C    2.404392613   1.339731371   1.712094810
