16
0 1
  H    1.112623611   2.421658927   2.975619450
  H   -0.231105161   1.654726681   2.105089691
  H    0.921601148   0.655835142   3.021099953
  H    1.464064349  -2.887475428   0.331422320
  H    2.713992360   2.982551701  -1.154551148
  H    0.430723099  -1.953875927  -0.768725797
  H    2.171885655  -2.108129593  -1.100716379
  H    3.059801297   2.027764163  -2.613138781
  O    2.428362236   0.931453887  -1.019502734
  P    1.207810714   0.588226979  -0.010217020
  O    1.675073359   1.471162225   1.266518930
  C    0.813382541   1.547618964   2.404871846
  O    1.698384823  -0.871892474   0.497103766
  C    1.422165494  -2.016865894  -0.316264427
  C    2.384861902   2.146846578  -1.770710933
  H    1.377659801   2.347373785  -2.142258816
