10
0 1
  O   -0.691021334   3.282543723   0.000000000
  H   -1.057771960   2.394413199   0.000000000
  C    0.725330428   3.188416135   0.000000000
  H    1.110606985   4.205205472   0.000000000
  H    1.103186055   2.675156900   0.888747891
  H    1.103186055   2.675156900  -0.888747891
  P   -0.356030354  -2.261806434   0.000000000
  P   -0.446935412  -0.362309675  -1.105768740
  P   -0.446935412  -0.362309675   1.105768740
  P    1.377609635  -0.898649482   0.000000000
