9
0 1
  H    0.020542336  -0.413691647  -0.573223040
  H    1.438772101  -0.686744351   0.722528447
  S    1.343149904  -0.651669470  -0.614618208
  H   -2.258565997  -3.460905379  -1.722353540
  H   -2.234284123  -3.693480045   0.028719959
  H   -0.837057979  -2.980356406  -0.787480049
  P   -3.082273728  -0.289131872  -0.398962513
  C   -2.490234439  -1.698290933  -0.593853171
  C   -1.928056573  -3.024961636  -0.777900497
