13
0 1
  H   -0.000000000   0.000000000  -2.916476279
  F   -0.000000000   0.000000000  -3.853087078
  H    0.000000000  -2.329292782   1.195821228
  H    0.000000000   2.329292782   1.195821228
  C    0.000000000  -1.222321739   3.012548019
  C    0.000000000  -1.338333114   1.630883531
  P    0.000000000   0.000000000   0.539790253
  C    0.000000000   1.338333114   1.630883531
  C    0.000000000   1.222321739   3.012548019
  C    0.000000000   0.000000000   3.676525683
  H    0.000000000   2.126697409   3.607868499
  H    0.000000000   0.000000000   4.757391233
  H    0.000000000  -2.126697409   3.607868499
