13
0 1
  H   -0.000000000   0.000000000  -2.916476279
  F   -0.000000000   0.000000000  -3.853087078
  H    0.000000000  -2.329292782  -0.071476500
  H   -0.000000000   2.329292782  -0.071476500
  C    0.000000000  -1.222321739   1.745250291
  C    0.000000000  -1.338333114   0.363585803
  P   -0.000000000   0.000000000  -0.727507475
  C   -0.000000000   1.338333114   0.363585803
  C   -0.000000000   1.222321739   1.745250291
  C   -0.000000000   0.000000000   2.409227955
  H   -0.000000000   2.126697409   2.340570771
  H   -0.000000000   0.000000000   3.490093505
  H    0.000000000  -2.126697409   2.340570771
