8
0 1
  H    0.373563736   0.965915426   0.000000000
 Cl    0.159554978   2.242092151   0.000000000
  H   -2.547165079  -0.842597998  -0.883965785
  H   -2.210074133   0.649345990   0.000000000
  H   -2.547165079  -0.842597998   0.883965785
  P    0.861601876  -1.102654804   0.000000000
  C   -0.639619522  -0.750794261   0.000000000
  C   -2.056851084  -0.431430846   0.000000000
