8
0 1
  H   -0.337669649   0.185761799   0.000000000
 Br   -0.058551079   1.597089692   0.000000000
  H    1.945959368  -1.382901498   0.000000000
  H    2.240560026  -2.883918604  -0.884014065
  H    2.240560026  -2.883918604   0.884014065
  P   -1.175859062  -3.036611448   0.000000000
  C    0.336427270  -2.736084184   0.000000000
  C    1.762067638  -2.459136996   0.000000000
