15
0 1
  H    0.000005849  -0.520678153   0.000000000
 Br   -0.000054595  -2.022146666   0.000000000
  H   -1.865105490   1.894771276  -1.469454914
  H   -0.340031914   1.894803456  -2.350012174
  H   -0.779967487   3.294078848  -1.350936644
  H   -1.865105490   1.894771276   1.469454914
  H   -0.779967487   3.294078848   1.350936644
  H   -0.340031914   1.894803456   2.350012174
  H    2.205247610   1.894829295  -0.880516280
  H    2.205247610   1.894829295   0.880516280
  H    1.559989359   3.294108208   0.000000000
  P    0.000065403   1.391268648   0.000000000
  C   -0.822959711   2.206775754  -1.425457210
  C   -0.822959711   2.206775754   1.425457210
  C    1.646044147   2.206806978   0.000000000
