14
0 1
  H    0.585287531   2.270346384   2.642452596
  H   -1.059746654   1.657269866   2.474287645
  H   -0.140213219   1.345045674   3.956947824
  H    0.789204095  -2.741077477   1.388043701
  H   -2.519044199  -1.484052860   2.732563544
  H   -0.016079570  -3.423128500   2.809161159
  H   -0.951366592  -3.055509378   1.369980768
  H   -1.809134251  -0.255128119   3.778667562
  H   -1.620563647  -1.972238255   4.155885036
  P    0.647508162  -0.092489436   2.097094223
  C   -0.406592016  -1.334305184   2.519869110
  C   -0.118118131  -2.709553300   1.987969407
  C   -1.648368367  -1.237604035   3.347372643
  C   -0.070941667   1.433482796   2.873594666
