13
0 1
  C   -0.400014521  -2.245398424   0.000000000
  H   -0.887381671  -1.295343225   0.000000000
  C    0.168724755  -3.298162291   0.000000000
  H    0.665624691  -4.235919405   0.000000000
  H    1.473114037   1.814134633   1.357660484
  H    0.980548112   0.101727895   1.356874356
  H    0.066119108   1.292681359   2.298358228
  H    0.066119108   1.292681359  -2.298358228
  H    0.980548112   0.101727895  -1.356874356
  H    1.473114037   1.814134633  -1.357660484
  C    0.626319579   1.130939211   1.380780951
  S   -0.499366375   1.458122783   0.000000000
  C    0.626319579   1.130939211  -1.380780951
