12
0 1
  H    0.389332314   2.344045487  -1.681806636
  H   -1.199874482   1.759198382  -2.182546842
  H    0.102187467   0.605834913  -1.868648370
  P   -1.170584739   1.341958558   1.328922668
  C   -0.748470102   1.455338816  -0.148161286
  C   -0.343502892   1.547672902  -1.539721749
  H    1.748802082   0.338968874   0.002233183
  H    2.792228198  -1.080437157  -0.189532557
  H    1.719645287  -0.962065511   1.212615368
  H   -0.500497706  -1.028804750  -0.291678973
  C    1.822090828  -0.733241926   0.156009662
  S    0.575381343  -1.623578847  -0.830062568
