9
0 1
  H    0.768853389   0.330090447   1.802425444
  H    2.135923444  -0.174938032   0.777972026
  H    0.798297563  -1.301273409   1.118944563
  H    0.075040673   2.453691599  -1.426263549
  H    1.655562182   2.142310012  -0.692250931
  H    0.250750719   2.516015703   0.335153300
  C    1.063003188  -0.262918852   0.938012763
  S    0.143767314   0.255652558  -0.533385146
  C    0.581587757   2.012205847  -0.571427570
