13
0 1
  H   -0.451727951  -2.314010524  -0.311718029
  H   -1.753378965  -1.118387924  -0.327603487
  H   -0.556047301  -1.652379062   2.015428507
  H    1.112197739   1.425509442   0.349725876
  H   -0.887513545   0.029454441   1.584329558
  H    2.421248199   0.399161134  -0.254867172
  H    1.495603005  -0.062236176   2.216878329
  H    1.753100576  -1.442721766   1.151437812
  S    0.299022760  -0.210363524  -1.243063534
  C   -0.698421345  -1.272363893  -0.116218911
  C   -0.321440531  -0.858708921   1.305590980
  C    1.170549814  -0.529937502   1.287261407
  C    1.394404157   0.404640579   0.100748862
