11
0 1
  H    0.234950421   1.503189900   0.000000000
  F   -0.110872131   2.385641816   0.000000000
  H   -1.217614874  -1.319424254  -1.349885935
  H   -0.653498656  -3.012197335  -1.377367227
  H    0.208692069  -1.768857788  -2.300256732
  H    0.208692069  -1.768857788   2.300256732
  H   -0.653498656  -3.012197335   1.377367227
  H   -1.217614874  -1.319424254   1.349885935
  C   -0.346283525  -1.968986468  -1.387514538
  S    0.767686356  -1.625062569   0.000000000
  C   -0.346283525  -1.968986468   1.387514538
