11
0 1
  H    0.234950421   1.503189900   0.000000000
  F   -0.110872131   2.385641816   0.000000000
  H   -1.306404196  -0.798048842  -1.349885935
  H   -0.742287978  -2.490821924  -1.377367227
  H    0.119902746  -1.247482376  -2.300256732
  H    0.119902746  -1.247482376   2.300256732
  H   -0.742287978  -2.490821924   1.377367227
  H   -1.306404196  -0.798048842   1.349885935
  C   -0.435072848  -1.447611056  -1.387514538
  S    0.678897034  -1.103687158   0.000000000
  C   -0.435072848  -1.447611056   1.387514538
