8
0 1
  H   -0.227014778   0.166887111  -1.353692766
  F   -0.474200276   0.715088217  -2.079126833
  H   -0.149439823   0.467292456   2.985294924
  H    1.593359665   0.307944133   3.241230765
  H    0.475740180  -0.376108466   4.431452801
  H   -0.533430404  -2.159213718   2.676937941
  C    0.630964765  -0.177617566   3.375825921
  S    0.717395972  -1.738188207   2.434776814
