10
0 1
  H    1.808874213  -2.024135977   2.754012126
  H    0.210535623  -2.642731846   2.286413661
  H    0.355749048  -1.096075644   3.165783353
  H   -0.587369165   1.848624107   0.752026934
  H   -1.276819162   0.973638819   2.149344625
  H   -2.293991213   1.351709365   0.744249393
  C    0.808817509  -1.747055062   2.423502310
  S    1.030451019  -0.879311073   0.839203398
  S   -0.901266535  -0.500276908   0.259286676
  C   -1.289708239   1.083796576   1.069136222
