8
0 1
  H   -0.713230529   0.360813909  -0.389639872
 Cl   -0.975746180   1.504326327  -0.971284297
  H    1.635895321   0.686735754   0.478556950
  H    2.161000700  -0.719094478  -0.457128472
  H    2.393250248  -0.709745689   1.297329394
  H   -0.240388447  -0.690724398   1.812259030
  C    1.740143517  -0.393833582   0.490150122
  S    0.111439452  -1.202861443   0.623009166
