11
0 1
  H   -0.343429210   0.154375710  -0.309593205
 Br    0.499588318  -0.323138206  -1.433920295
  H    1.246068236   0.977501421   1.584065034
  H    0.579392329   1.402866510   3.185429059
  H    0.349293831   2.490760676   1.804562843
  H   -1.693837049  -1.622917957   2.019749782
  H   -0.632248907  -1.036676454   3.313040742
  H    0.042758627  -1.445265104   1.710799224
  C    0.419862307   1.450449162   2.110882186
  S   -1.146139788   0.656583739   1.669523389
  C   -0.811304980  -1.028407211   2.240550701
