9
0 1
  H   -1.090739145   1.707712845   1.355874607
  H   -0.904456298   3.484347134   1.357877629
  H    0.204022713   2.468983126   2.298518063
  H    0.204022713   2.468983126  -2.298518063
  H   -0.904456298   3.484347134  -1.357877629
  H   -1.090739145   1.707712845  -1.355874607
  C   -0.380526001   2.531995243   1.384558962
  S    0.777483006   2.410883889   0.000000000
  C   -0.380526001   2.531995243  -1.384558962
