8
0 1
  H   -0.146792520  -0.151826058  -0.121559827
  I   -0.961031022  -0.352091381  -1.542289963
  H   -1.249369634  -1.263791205   3.186899432
  H   -0.385130923  -2.329029754   2.068589026
  H   -1.668237894  -1.280535728   1.449463217
  H   -0.332160696   0.973295333   2.039746901
  C   -0.865156462  -1.360386841   2.176486349
  S    0.426933702  -0.117343337   1.854349511
