9
0 1
  C    0.315950133  -1.637450299   0.000000000
  H    0.815403366  -0.697738209   0.000000000
  C   -0.259427185  -2.686214375   0.000000000
  H   -0.763906337  -3.619848858   0.000000000
  H   -0.974477970   2.146954726   0.893892902
  H   -0.974477970   2.146954726  -0.893892902
  H   -1.273974688   0.628050786   0.000000000
  C   -0.736499027   1.574217293   0.000000000
  F    0.633855921   1.305903552   0.000000000
