10
0 1
  C   -0.045358139   2.459433130   0.000000000
  H    0.597315397   1.582811146   0.000000000
  H   -0.673508224   2.451908275   0.888289198
  H   -0.673508224   2.451908275  -0.888289198
  H    0.564968051   3.359502566   0.000000000
  H   -1.208334992  -0.976192690   0.000000000
  H   -0.961057357  -2.503175793  -0.893116157
  H   -0.961057357  -2.503175793   0.893116157
  C   -0.699449092  -1.938171145   0.000000000
  F    0.673645566  -1.715512294   0.000000000
