11
0 1
  H   -2.892878337   1.383441369  -2.418754018
  H   -2.883689658   0.154943136  -3.716907856
  H   -2.338074383  -0.283141126  -2.068670202
  C   -2.395464291   0.502439172  -2.815105902
  O   -1.041985075   0.865978670  -3.236513666
  C   -0.263382111   1.272213617  -2.307293766
  N    0.465879199   1.635454896  -1.488247684
  P    0.639832435  -0.603949859   0.638048732
  F   -0.747769808  -0.956191505  -0.104420682
  F    0.392572302  -1.471833415   1.964557467
  H    0.191661665   0.626306612   1.196791823
