11
0 1
  O   -0.756718617   1.277987001  -1.412937910
  H   -0.588776896   1.071719275  -0.491380046
  C   -0.218561446   0.240510301  -2.219749535
  H   -0.408660002   0.514260066  -3.254710636
  H    0.861262281   0.132367295  -2.084927087
  H   -0.698617297  -0.722721751  -2.025192141
  C    0.796788472  -1.771366081   1.030580579
  F    0.473068014  -0.489494732   1.191645510
  F   -0.234482810  -2.419545117   0.511498704
  F    1.106921819  -2.293772668   2.205370705
  F    1.834902788  -1.859957575   0.214019379
