12
0 1
  H   -0.748937005   2.058560464  -1.823041585
  H   -0.411600206  -1.614430501  -2.315267051
  H   -2.304666348  -0.112372608   0.256988524
  P   -1.629360907   0.091255759  -1.789269326
  O   -2.210091316   0.225505071  -3.117115713
  O   -0.559424319   1.215909968  -1.398243082
  O   -2.680411486   0.065938823  -0.616107398
  O   -0.772466205  -1.232310667  -1.509166881
  P    0.583364861  -1.452318202   1.270556316
  F   -0.868824402  -0.796651262   1.559780080
  F    1.268332150  -1.076949281   2.662160454
  H    1.086048328  -0.327137686   0.556794750
