7
0 1
  H    0.146501661   0.397704458  -2.286260823
  F    0.621680349   0.612576639  -3.048278943
  C   -0.566519393  -0.344135658   1.588706226
  F   -1.162403745  -0.221067132   0.392447199
  F   -1.060736002  -1.401968336   2.204346228
  F   -0.802580483   0.743660568   2.298420721
  F    0.733310672  -0.492239452   1.406464971
