7
0 1
  H    0.146501661   0.397704458  -2.286260823
  F    0.621680349   0.612576639  -3.048278943
  C   -1.002821195  -0.550392855   2.481608900
  F   -1.598705547  -0.427324328   1.285349873
  F   -1.497037804  -1.608225533   3.097248902
  F   -1.238882285   0.537403372   3.191323395
  F    0.297008870  -0.698496648   2.299367645
