9
0 1
  C    0.479911713  -2.111934053   0.000000000
  H    1.047301428  -1.212360231   0.000000000
  C   -0.175906264  -3.112159341   0.000000000
  H   -0.750117368  -4.004711377   0.000000000
  H   -1.614818374   0.902006721  -0.891927815
  H   -1.212277274  -0.590764120   0.000000000
  H   -1.614818374   0.902006721   0.891927815
  C   -1.155874895   0.491829005   0.000000000
 Cl    0.579115868   0.962146551   0.000000000
