8
0 1
  C    2.781418243  -0.608550324  -0.534769490
  H    2.005196997  -1.321134149  -0.666124262
  C    3.650641240   0.199478900  -0.390357533
  H    4.421813727   0.916509176  -0.259273507
 Cl   -0.578132844  -1.430664402  -1.548534882
  S   -0.550003250   0.588240193  -0.970128556
  S   -1.233644340   0.722547441   0.845882781
 Cl    0.337006852   0.406319903   2.184082978
