7
0 1
  O   -0.179065184  -3.016945644   0.000000000
  H    0.042387182  -2.470831377   0.758723103
  H    0.042387182  -2.470831377  -0.758723103
  P    0.107059463   1.120592372   0.000000000
 Cl   -1.825238929   0.411962822   0.000000000
 Cl    0.904936346   0.058928024   1.594095765
 Cl    0.904936346   0.058928024  -1.594095765
