7
0 1
  O   -0.179065184  -3.016945644   0.000000000
  H    0.042387182  -2.470831377   0.758723103
  H    0.042387182  -2.470831377  -0.758723103
  P   -0.073680092   0.590503644   0.000000000
 Cl   -2.005978484  -0.118125906   0.000000000
 Cl    0.724196791  -0.471160704   1.594095765
 Cl    0.724196791  -0.471160704  -1.594095765
