8
0 1
  H    1.134943156   0.464255462  -0.467961851
  H    2.134375891   1.451346819   0.870753575
  S    1.441289529   1.751931610  -0.237291113
  H   -2.108492927  -0.911404263   1.744205575
  H   -1.366949261   0.406632687   0.793180320
  H   -2.809772078  -0.443430241   0.172453656
  C   -1.897060994  -0.538122934   0.749004154
 Cl   -0.836009263  -1.730217598  -0.079265341
