7
0 1
  H   -0.519803633  -0.110834186   0.000000000
 Br    0.006830518  -1.446762766   0.000000000
  H    1.513550540   5.229713991  -0.892805366
  H    1.513550540   5.229713991   0.892805366
  H    1.564061613   3.684577047   0.000000000
  C    1.196405404   4.704362624   0.000000000
 Cl   -0.602248691   4.647814696   0.000000000
