7
0 1
  H   -0.702521814   0.041860819  -0.493308322
  I   -0.187423614   0.613641067   0.935060773
  H    1.001211472  -2.006721753  -1.138868140
  H    0.432840020  -3.489194465  -1.953635963
  H    1.506110338  -2.352537684  -2.815270414
  C    0.711811072  -2.450505914  -2.084911322
 Cl   -0.724182184  -1.562574098  -2.702341897
