10
0 1
  C    0.120938912  -3.213905144   0.000000000
  O   -0.854262766  -2.493936571   0.000000000
  O    1.375551699  -2.746566060   0.000000000
  H    1.340327249  -1.774999249   0.000000000
  C    0.067804958  -4.711552324   0.000000000
  H   -0.964215052  -5.042573061   0.000000000
  H    0.586145538  -5.094916751  -0.877736564
  H    0.586145538  -5.094916751   0.877736564
 Br   -0.030444602  -0.268863881   0.000000000
 Br    0.561703891   2.000229816   0.000000000
