11
0 1
  O   -0.240701088   1.999524425  -1.453316336
  H   -0.749410811   1.398189354  -0.900205020
  C    0.041786954   1.342830009  -2.680926899
  H    0.664870094   2.014850194  -3.266432542
  H    0.585166578   0.406156399  -2.527311245
  H   -0.867739438   1.129788836  -3.248683900
  H    1.932110910  -1.053619032   1.717768626
  H    2.111514662  -1.609567933   3.413025310
  H    2.749857629  -2.611310339   2.076433141
  C    1.985307545  -1.908264710   2.380541713
 Br    0.258196289  -2.834129820   2.250276346
