8
0 1
  O   -0.839742903  -2.093669239  -1.692221928
  H   -0.350912242  -2.504938818  -2.408435995
  H   -0.169835468  -1.778391156  -1.074681996
  H   -1.099345895   1.995495688  -0.627306631
  H   -1.564080576   0.291538828  -0.944707288
  H   -1.955942268   1.053960058   0.629561031
  C   -1.260764239   1.014904346  -0.198862701
 Br    0.463441578   0.405862596   0.520129559
