7
0 1
  H    0.448422173   0.705873360   0.000000000
 Br    0.018048804   2.077839545   0.000000000
  H   -1.911453854  -1.736172394   0.000000000
  H   -2.101167858  -3.274540721  -0.894873069
  H   -2.101167858  -3.274540721   0.894873069
  C   -1.718502720  -2.801628608   0.000000000
 Br    0.228245418  -3.042262569   0.000000000
