8
0 1
  O   -0.911617218  -0.140255114  -0.402986320
  H   -0.020341759   0.227103403  -0.409711049
  H   -0.793861892  -1.082373528  -0.261385658
  H   -0.162093126   3.780262906   3.432283783
  H   -0.550944606   4.686293830   1.938273167
  H   -0.776690341   2.906651380   1.987855548
  C   -0.202788517   3.749034145   2.351571727
  I    1.818937598   3.462221770   1.650750487
