7
0 1
  H   -0.507870575   0.917833145  -0.360493599
  I   -1.171783424   2.175692016   0.433163743
  H    2.484973740  -0.074127994   1.240344814
  H    0.848867784   0.559168296   1.599691154
  H    1.231436584  -1.162324383   1.911506513
  C    1.428186836  -0.300704632   1.287591882
  I    0.792336419  -0.799931141  -0.709399225
