9

N   -0.000000000   0.000000000   1.848336590
H    0.937309790  -0.000000000   2.232067410
H   -0.468654890  -0.811734090   2.232067410
H   -0.468654890   0.811734090   2.232067410
H    0.000000000  -0.000000000  -0.944971740
C    0.000000000  -0.000000000  -2.033637520
H    0.512514390   0.887700960  -2.400951250
H    0.512514390  -0.887700960  -2.400951250
H   -1.025028780   0.000000000  -2.400951250