8

C    0.000000000   0.601239800  -1.353839760
O    0.000000000  -0.593018140  -1.552090210
H    0.935422500   1.174276240  -1.265151320
H   -0.935422500   1.174276240  -1.265151320
C    0.000000000  -0.602004760   1.552288660
O    0.000000000   0.592386380   1.355113280
H    0.000000000  -1.009379820   2.575246350
H    0.000000000  -1.320029060   0.716949970