10

C    0.000000000  -0.596622480   1.587222060
C    0.000000000   0.682582380   1.204946420
N    0.000000000  -0.004013790  -2.310967010
H    0.923121470   1.224236580   1.040624630
H   -0.923121470   1.224236580   1.040624630
H   -0.923889930  -1.137385480   1.751212810
H    0.923889930  -1.137385480   1.751212810
H   -0.811225490  -0.459830600  -2.710438810
H    0.000000000  -0.222494320  -1.321281610
H    0.811225490  -0.459830600  -2.710438810