 6
0 1
 H       -0.000000000     1.233449480     2.829317920
 C       -0.000000000     0.667116980     1.906010420
 H        0.000000000     1.225471480     0.977761990
 C       -0.000000000    -0.667116980     1.906010420
 H       -0.000000000    -1.225471480     0.977761990
 H       -0.000000000    -1.233449480     2.829317920
