 6
# File title
 H       -0.923961000     1.231956000    -1.684781230
 C        0.000000000     0.667176000    -1.684781230
 H        0.923961000     1.231956000    -1.684781230
 C        0.000000000    -0.667176000    -1.684781230
 H        0.923961000    -1.231956000    -1.684781230
 H       -0.923961000    -1.231956000    -1.684781230
