10
0 1
  H    2.010280107  -0.324447455  -0.630241859
  H    2.200430424  -1.331650047   0.808828266
  H    1.838633582   0.387952798   0.992167894
  H   -0.571036159   0.195417835  -0.151614939
  C    1.655656150  -0.493093976   0.382990471
  S   -0.109226185  -0.948575969   0.396375193
  N   -1.121777910   1.749257918  -0.869820510
  H   -1.527184109   2.330065338  -0.146818799
  H   -0.431319982   2.306971077  -1.356166636
  H   -1.855863739   1.531757954  -1.531900578
