10
0 1
  H    2.010280107  -0.324447455  -0.630241859
  H    2.200430424  -1.331650047   0.808828266
  H    1.838633582   0.387952798   0.992167894
  H   -0.571036159   0.195417835  -0.151614939
  C    1.655656150  -0.493093976   0.382990471
  S   -0.109226185  -0.948575969   0.396375193
  N   -1.293884707   2.234832944  -1.094259751
  H   -1.699290906   2.815640364  -0.371258040
  H   -0.603426779   2.792546103  -1.580605877
  H   -2.027970536   2.017332980  -1.756339819
