10
0 1
  H    1.217743030   0.788143311  -0.078965726
  H    1.906226285   2.113299383  -1.325472783
  S    1.841658755   1.977347311   0.007004422
  H   -3.151780346  -0.500887994   1.191464400
  H   -3.402621858  -0.394774498  -0.568304233
  H   -2.259815998   0.696874902   0.236146110
  C   -2.667790309  -0.307857894   0.233180370
  N   -1.531022768  -1.218119978   0.015936328
  N   -1.792810619  -2.415113110  -0.010441573
  N   -1.917151189  -3.535926090  -0.053237061
