9
0 1
  H   -0.172375188  -0.888330607   0.000000000
  F    0.158810900  -1.799313584   0.000000000
  N   -0.605382597   0.514053312   0.000000000
  H   -1.184451091   0.681687788   0.813140199
  H   -1.184451091   0.681687788  -0.813140199
  C    0.569207660   1.400016862   0.000000000
  H    1.173733784   1.184903805   0.878043289
  H    1.173733784   1.184903805  -0.878043289
  H    0.315926347   2.462166810   0.000000000
