7
0 1
  N   -0.653494531   0.669873747   0.000000000
  H   -1.232563025   0.837508223   0.813140199
  H   -1.232563025   0.837508223  -0.813140199
  C    0.521095726   1.555837297   0.000000000
  H    1.125621850   1.340724240   0.878043289
  H    1.125621850   1.340724240  -0.878043289
  H    0.267814413   2.617987245   0.000000000
