9
0 1
  H    0.047398582   2.376990287   0.000000000
  F    0.229305667   3.300103958   0.000000000
  H    0.992678500  -4.107307238  -0.895929680
  H    0.992678500  -4.107307238   0.895929680
  H    0.074596637  -5.352968725   0.000000000
  C    0.419046233  -4.326664153   0.000000000
  O   -0.801604409  -3.519763097   0.000000000
  C   -0.633986730  -2.254750226   0.000000000
  N   -0.521740174  -1.108862947   0.000000000
