9
0 1
  H    0.126682222   1.083119430   0.000000000
 Cl    0.244070020   2.384096055   0.000000000
  H   -1.976105014  -1.350939325   0.891135748
  H   -1.976105014  -1.350939325  -0.891135748
  H   -2.230573578   0.159547550   0.000000000
  C   -1.700852612  -0.786531411   0.000000000
  N   -0.265389636  -0.459155053   0.000000000
  N    0.515479122  -1.407099652   0.000000000
  N    1.315632246  -2.199833273   0.000000000
