9
0 1
  H    0.108442249  -1.774679671   0.000000000
 Cl   -0.147300079  -3.049197596   0.000000000
  H   -1.405733616   2.718084775  -0.895624011
  H   -1.405733616   2.718084775   0.895624011
  H   -0.596908887   4.037120350   0.000000000
  C   -0.851761867   2.984852813   0.000000000
  O    0.431612204   2.285133992   0.000000000
  C    0.368864981   1.008603636   0.000000000
  N    0.351498205  -0.143848911   0.000000000
