13
0 1
  H    0.000000000   0.000000000   1.625883667
 Cl    0.000000000   0.000000000   2.993344991
  H    0.000000000  -2.147713952  -2.709353139
  H    0.000000000  -2.051415327  -0.215822986
  C    0.000000000   0.000000000  -2.903153942
  C    0.000000000  -1.196403290  -2.199037711
  C    0.000000000  -1.149313355  -0.813104984
  N    0.000000000   0.000000000  -0.140108263
  C    0.000000000   1.149313355  -0.813104984
  C    0.000000000   1.196403290  -2.199037711
  H    0.000000000   2.051415327  -0.215822986
  H    0.000000000   2.147713952  -2.709353139
  H    0.000000000   0.000000000  -3.983731460
