12
0 1
  H    1.372511541  -0.064978654  -1.043237779
  H    2.272747724  -1.519531556  -0.584395577
  H    2.376209150  -0.068536694   0.423254912
  H   -0.247481371  -0.137544417   1.018760109
  C    1.720794748  -0.662912680  -0.206478858
  S    0.317023197  -1.324872175   0.748579721
  O   -0.696944600   1.531279402   0.060200488
  H   -0.861418164   2.467791190   0.186102605
  C   -1.430244886   1.073975856  -1.072745158
  H   -1.251157136   0.004280135  -1.147062138
  H   -2.503876334   1.238411240  -0.955522164
  H   -1.092735084   1.554719433  -1.994226686
