11
0 1
  H   -0.064731809   0.051850180  -1.624618161
  F    0.088838349   0.822032063  -2.190519980
  H    0.436575074   1.566758172   1.473162831
  H    0.354285808   1.566754480  -0.265826739
  H   -1.126388838  -1.364431435   2.015918065
  H    0.580795712  -1.764149138   1.935147021
  H    0.063953045  -0.287307900   2.773597375
  O   -0.220044586  -0.848020859  -0.453752101
  C   -0.026550941  -0.234259906   0.598178394
  N    0.280821636   1.075166335   0.614295158
  C   -0.128813246  -0.939113875   1.924923029
