7
0 1
  H    0.871142764  -2.312108758   0.000000000
 Cl    0.307298170  -3.478726849   0.000000000
  P    0.203598540   0.441145855   0.000000000
 Cl   -1.021740069   0.331878920   1.584057720
 Cl   -1.021740069   0.331878920  -1.584057720
 Cl    0.855778668   2.339078669   0.000000000
  O    1.274199571  -0.549187208   0.000000000
