12
0 1
  C   -1.141377827   3.517604616   0.000000000
  H   -1.784778838   3.522929441  -0.877664029
  H   -0.527620894   4.415881475   0.000000000
  H   -1.784778838   3.522929441   0.877664029
  C   -0.337342255   2.239867915   0.000000000
  O   -0.901316927   1.147460409   0.000000000
  N    1.002585454   2.369040494   0.000000000
  H    1.391415551   3.293470009   0.000000000
  C    1.905271411   1.228754896   0.000000000
  H    1.748069706   0.608438063   0.879891894
  H    1.748069706   0.608438063  -0.879891894
  H    2.927290302   1.595688786   0.000000000
