8
0 1
  H   -2.195062068  -1.178512777   0.347099947
  H    0.741750561  -1.794479945   2.323988600
  H    0.139155944   1.233844115   0.435666248
  P   -0.714674674  -0.338427344   1.674148014
  O   -1.634163610  -0.456804396   2.795769418
  O   -1.237311637  -1.076604549   0.334638064
  O   -0.391409969   1.139968950   1.240837614
  O    0.736033080  -0.966207774   1.833888045
