8
0 1
  C    0.000000265   2.043588826   0.000000000
  H    0.000000179   0.979121358   0.000000000
  C    0.000000282   3.239753475   0.000000000
  H    0.000000279   4.300903661   0.000000000
  P   -0.000000150  -1.367385023   0.000000000
  H   -0.598123803  -2.124941426   1.035981141
  H   -0.598123803  -2.124941426  -1.035981141
  H    1.196248009  -2.124941255   0.000000000
