7
0 1
  O   -0.055282958  -3.813648339   0.000000000
  H   -0.046670971  -2.851240870   0.000000000
  H    0.870130074  -4.069307195   0.000000000
  P    0.021898621   1.463821515  -1.103647172
  P   -1.124512663  -0.055580931   0.000000000
  P    1.088323726  -0.110442384   0.000000000
  P    0.021898621   1.463821515   1.103647172
