7
0 1
  O   -0.055282958  -3.813648339   0.000000000
  H   -0.046670971  -2.851240870   0.000000000
  H    0.870130074  -4.069307195   0.000000000
  P    0.027752426   2.030884394  -1.103647172
  P   -1.118658858   0.511481948   0.000000000
  P    1.094177531   0.456620495   0.000000000
  P    0.027752426   2.030884394   1.103647172
