7
0 1
  O   -0.055282958  -3.813648339   0.000000000
  H   -0.046670971  -2.851240870   0.000000000
  H    0.870130074  -4.069307195   0.000000000
  P    0.023362072   1.605587235  -1.103647172
  P   -1.123049212   0.086184789   0.000000000
  P    1.089787177   0.031323336   0.000000000
  P    0.023362072   1.605587235   1.103647172
