8
0 1
  H   -0.309778637   1.408639177   0.033212071
  F   -0.130618760   2.322985077  -0.026014150
  H    2.069255676   0.675226333  -0.970521352
  H    2.454489552  -1.026578256  -0.679584026
  H    2.423737887   0.120457717   0.666022042
  P   -0.958636749  -0.777356850   0.153163410
  C    0.531311867  -0.442480488  -0.065542488
  C    1.940839843  -0.153806428  -0.273165074
