8
0 1
  H   -0.309778637   1.408639177   0.033212071
  F   -0.130618760   2.322985077  -0.026014150
  H    2.105303349   0.796670557  -0.977185316
  H    2.490537225  -0.905134032  -0.686247989
  H    2.459785560   0.241901941   0.659358079
  P   -0.922589076  -0.655912626   0.146499446
  C    0.567359540  -0.321036264  -0.072206451
  C    1.976887516  -0.032362204  -0.279829037
