13
0 1
  H   -0.000000000   0.000000000  -2.916476279
  F   -0.000000000   0.000000000  -3.853087078
  H    0.000000000  -2.329292782  -0.417103154
  H   -0.000000000   2.329292782  -0.417103154
  C    0.000000000  -1.222321739   1.399623637
  C    0.000000000  -1.338333114   0.017959149
  P   -0.000000000   0.000000000  -1.073134129
  C   -0.000000000   1.338333114   0.017959149
  C   -0.000000000   1.222321739   1.399623637
  C   -0.000000000   0.000000000   2.063601301
  H   -0.000000000   2.126697409   1.994944117
  H   -0.000000000   0.000000000   3.144466851
  H    0.000000000  -2.126697409   1.994944117
