16
0 1
  H    0.331345486   1.884346591   0.000000000
 Cl   -0.055022791   3.130768445   0.000000000
  H    3.116058240  -1.616258346   0.000000000
  H    2.212171420  -2.843926268   0.886439173
  H    2.212171420  -2.843926268  -0.886439173
  H   -1.861303906  -0.216126830   0.000000000
  H   -1.249671949  -3.839041028   0.875104011
  H   -2.535694034  -1.594714820  -0.877293753
  H   -2.535694034  -1.594714820   0.877293753
  H    0.277957951  -3.974058240   0.000000000
  H   -1.249671949  -3.839041028  -0.875104011
  P    0.759746560  -1.050479832   0.000000000
  C   -0.621153970  -1.995845668   0.000000000
  C   -1.954088561  -1.300105622   0.000000000
  C   -0.694145535  -3.491181150   0.000000000
  C    2.205045174  -2.211471882   0.000000000
