13
0 1
  H   -0.000000000   0.000000000  -1.468387165
 Br   -0.000000000   0.000000000  -2.910894635
  H    0.000000000  -2.327998980   1.785165739
  H    0.000000000   2.327998980   1.785165739
  C    0.000000000  -1.221858385   3.600804950
  C    0.000000000  -1.336254300   2.218993739
  P    0.000000000   0.000000000   1.121562919
  C    0.000000000   1.336254300   2.218993739
  C    0.000000000   1.221858385   3.600804950
  C    0.000000000   0.000000000   4.265524707
  H    0.000000000   2.126642665   4.195750661
  H    0.000000000   0.000000000   5.346445459
  H    0.000000000  -2.126642665   4.195750661
