7
0 1
  C    0.088317027   1.939161876   0.000000000
  H    0.213283249   0.881623217   0.000000000
  C   -0.056920454   3.126544944   0.000000000
  H   -0.183798061   4.180110454   0.000000000
  H   -0.892010493  -2.045341924   0.969418293
  H   -0.892010493  -2.045341924  -0.969418293
  S    0.034470867  -2.081927266   0.000000000
