8
0 1
  C    2.511893525  -1.368800800   0.014807431
  O    1.762163028  -1.971481259   0.744422099
  O    2.208385924  -0.181901632  -0.533728587
  H    1.315417067   0.085231385  -0.227681848
  C    3.881118187  -1.838537042  -0.390873648
  H    4.083903431  -2.806771292   0.052927509
  H    3.943693300  -1.902204970  -1.476283934
  H    4.628009781  -1.115239990  -0.066048908
