8
0 1
 Br   -0.030254314  -0.999634660   0.000000000
  O    0.761026747  -0.504663159  -1.322598332
  O    0.761026747  -0.504663159   1.322598332
  O   -1.551989949  -0.015483186   0.000000000
  H   -1.249893375   0.926211885   0.000000000
  H    0.577111767   1.910121078   0.967089121
  H    0.577111767   1.910121078  -0.967089121
  S   -0.119404626   2.529711806   0.000000000
