9
0 1
  O   -0.585825351  -1.659854852  -1.573484052
  H   -0.074872883  -1.347975847  -0.812756306
  H   -0.158298207  -2.472368998  -1.852017965
  H   -1.189238997   0.837122840  -0.811676208
  H    0.310488164   1.764510506  -0.924846771
  H   -0.851754811   2.154326493   0.351064128
  H   -0.552069080  -0.210521784   1.578871514
  C   -0.423391048   1.350254511  -0.239087241
  S    0.486895183   0.180000637   0.825369612
