9
0 1
  H    0.680006260   1.517355378   0.023818026
  H   -0.232802489   2.795996463  -0.819502866
  H    0.782062575   1.676364571  -1.741840684
  H   -3.025698771   0.275555809   0.416058234
  H   -2.501764865   1.967170055   0.453948602
  H   -1.540903164   0.716161502   1.280537478
  C    0.127108740   1.770734631  -0.879133005
  S   -1.249532564   0.619138676  -1.119965948
  C   -2.161079588   0.934497306   0.412694794
