12
0 1
  H    0.940216132   0.774574813  -0.419266955
  H    0.912651072   2.631086310  -1.014683435
  S    1.346251352   1.970156198   0.068247852
  H   -1.040473485  -2.107789890   1.822440646
  H   -0.024589483  -0.650054316   1.707300907
  H    0.671596279  -2.250421284   1.391313153
  H   -2.383918854  -0.290049134  -1.428021297
  H   -1.800373871   0.507788502   0.044445264
  H   -2.848687659  -0.930861033   0.156074549
  C   -0.218940522  -1.635689194   1.287465685
  S   -0.588588247  -1.518229419  -0.481233685
  C   -2.049926680  -0.451163441  -0.406019519
