8
0 1
  H   -0.227014778   0.166887111  -1.353692766
  F   -0.474200276   0.715088217  -2.079126833
  H   -0.503593854   1.181695700   1.564618832
  H    1.239205634   1.022347377   1.820554672
  H    0.121586149   0.338294778   3.010776708
  H   -0.887584435  -1.444810474   1.256261848
  C    0.276810734   0.536785678   1.955149828
  S    0.363241941  -1.023784963   1.014100722
