8
0 1
  H   -0.713230529   0.360813909  -0.389639872
 Cl   -0.975746180   1.504326327  -0.971284297
  H    1.773340318   0.426123195   0.647331790
  H    2.298445697  -0.979707037  -0.288353632
  H    2.530695245  -0.970358248   1.466104234
  H   -0.102943450  -0.951336957   1.981033870
  C    1.877588514  -0.654446141   0.658924962
  S    0.248884449  -1.463474002   0.791784006
