8
0 1
  H   -0.713230529   0.360813909  -0.389639872
 Cl   -0.975746180   1.504326327  -0.971284297
  H    1.590080322   0.773606607   0.422298670
  H    2.115185701  -0.632223625  -0.513386752
  H    2.347435249  -0.622874836   1.241071114
  H   -0.286203446  -0.603853545   1.756000750
  C    1.694328518  -0.306962729   0.433891842
  S    0.065624453  -1.115990590   0.566750886
