12
0 1
  H   -0.378300426   1.492799450   0.000000000
 Cl    0.152298446   2.699176240   0.000000000
  H    1.554666590   0.094720884   0.000000000
  H    2.123200450  -1.342245403   0.874053685
  H    2.123200450  -1.342245403  -0.874053685
  H   -0.853430591  -3.467908176   0.000000000
  H    0.694252910  -3.469127986  -0.874658941
  C    1.570365548  -0.988858321   0.000000000
  C    0.201053999  -1.590425755   0.000000000
  S   -1.167002801  -0.705139230   0.000000000
  C    0.162028850  -3.087073903   0.000000000
  H    0.694252910  -3.469127986   0.874658941
