12
0 1
  H   -0.378300426   1.492799450   0.000000000
 Cl    0.152298446   2.699176240   0.000000000
  H    1.629781102   0.304048378   0.000000000
  H    2.198314962  -1.132917909   0.874053685
  H    2.198314962  -1.132917909  -0.874053685
  H   -0.778316079  -3.258580682   0.000000000
  H    0.769367422  -3.259800492  -0.874658941
  C    1.645480060  -0.779530827   0.000000000
  C    0.276168511  -1.381098261   0.000000000
  S   -1.091888289  -0.495811736   0.000000000
  C    0.237143362  -2.877746409   0.000000000
  H    0.769367422  -3.259800492   0.874658941
