11
0 1
  H   -0.343429210   0.154375710  -0.309593205
 Br    0.499588318  -0.323138206  -1.433920295
  H    1.398965489   0.881842749   1.207090445
  H    0.732289582   1.307207838   2.808454470
  H    0.502191084   2.395102004   1.427588254
  H   -1.540939796  -1.718576629   1.642775193
  H   -0.479351654  -1.132335126   2.936066153
  H    0.195655880  -1.540923776   1.333824635
  C    0.572759560   1.354790490   1.733907597
  S   -0.993242535   0.560925067   1.292548800
  C   -0.658407727  -1.124065883   1.863576112
