9
0 1
  H   -0.513232116   0.204990711  -0.024081129
 Br   -1.319093678   0.779092326  -1.062312847
  S    1.007696910  -0.045884063   2.113171782
  P    0.470461652   1.964087355   2.489013674
  S   -2.138340300  -0.235252590   2.840634350
  S    0.074485581  -0.095030461   5.201087060
  P   -0.186201987   1.922735544   4.642144996
  P   -1.718385089   1.825608411   2.992593735
  P   -0.303706670  -1.131268744   3.394268688
