11
0 1
  H    0.540227290   0.348824840   0.000000000
  I   -0.099753736  -1.210693140   0.000000000
  H   -1.078876359   1.810815797   1.355874607
  H   -0.892593512   3.587450086   1.357877629
  H    0.215885499   2.572086078   2.298518063
  H    0.215885499   2.572086078  -2.298518063
  H   -0.892593512   3.587450086  -1.357877629
  H   -1.078876359   1.810815797  -1.355874607
  C   -0.368663215   2.635098195   1.384558962
  S    0.789345792   2.513986841   0.000000000
  C   -0.368663215   2.635098195  -1.384558962
