9
0 1
  N   -0.123190330   2.110527190   0.000000000
  H    0.558813216   1.361103936   0.000000000
  H    0.057236894   2.684121101  -0.813985719
  H    0.057236894   2.684121101   0.813985719
  H   -0.927003509  -1.591736767   0.893151234
  H   -1.273326999  -0.077525982   0.000000000
  H   -0.927003509  -1.591736767  -0.893151234
  C   -0.711368649  -1.008329729   0.000000000
  F    0.651802129  -0.693814943   0.000000000
