9
0 1
  N   -0.123190330   2.110527190   0.000000000
  H    0.558813216   1.361103936   0.000000000
  H    0.057236894   2.684121101  -0.813985719
  H    0.057236894   2.684121101   0.813985719
  H   -0.921837459  -1.705898927   0.893151234
  H   -1.268160949  -0.191688142   0.000000000
  H   -0.921837459  -1.705898927  -0.893151234
  C   -0.706202599  -1.122491889   0.000000000
  F    0.656968179  -0.807977103   0.000000000
