8
0 1
  C    0.117051709   1.274442082   0.000000000
  O    1.166609596   0.677312967   0.000000000
  O   -1.076602854   0.660704137   0.000000000
  H   -0.934016426  -0.304069627   0.000000000
  C   -0.022726243   2.770613513   0.000000000
  H    0.958583891   3.231480425   0.000000000
  H   -0.585458259   3.087729203  -0.876949085
  H   -0.585458259   3.087729203   0.876949085
