8
0 1
  O    0.080066228  -1.376853631  -1.389495123
  H    0.215590518  -1.145739031  -0.463594959
  H    0.576612278  -2.185512108  -1.529153525
  H   -1.269868082   1.419544143   0.574390533
  H    0.421505116   1.965365175   0.373414923
  H   -0.363012414   0.991852259  -0.908066272
  C   -0.294249330   1.174608126   0.161278794
  F    0.158672334  -0.000207605   0.778907155
