7
0 1
  H    0.246633062   1.009009125   0.000000000
  F   -0.152661221   1.851828982   0.000000000
  H   -0.326078863  -2.965319352   0.895479757
  H   -1.232784536  -1.707452886   0.000000000
  H   -0.326078863  -2.965319352  -0.895479757
  C   -0.357184662  -2.351061480   0.000000000
  F    0.788830883  -1.531893088   0.000000000
