7
0 1
  H    0.246633062   1.009009125   0.000000000
  F   -0.152661221   1.851828982   0.000000000
  H   -0.470664949  -2.287745429   0.895479757
  H   -1.377370622  -1.029878963   0.000000000
  H   -0.470664949  -2.287745429  -0.895479757
  C   -0.501770748  -1.673487557   0.000000000
  F    0.644244797  -0.854319165   0.000000000
