7
0 1
  H    0.246633062   1.009009125   0.000000000
  F   -0.152661221   1.851828982   0.000000000
  H   -0.579104513  -1.779564986   0.895479757
  H   -1.485810186  -0.521698520   0.000000000
  H   -0.579104513  -1.779564986  -0.895479757
  C   -0.610210312  -1.165307114   0.000000000
  F    0.535805233  -0.346138722   0.000000000
