7
0 1
  H    0.429587998  -0.486560541   0.000000000
 Cl   -0.066167684  -1.677249578   0.000000000
  H   -0.564815519   3.667119962   0.894772468
  H   -0.564815519   3.667119962  -0.894772468
  H   -1.297294488   2.302206500   0.000000000
  C   -0.509838007   3.052250032   0.000000000
  F    0.727761325   2.392458016   0.000000000
