7
0 1
  H   -0.499627856   0.249626143   0.118499305
 Br    0.273074964  -0.060187914  -1.046367715
  H    0.354791320   0.579313462   3.177873303
  H   -0.466323977  -1.005599196   3.054835610
  H    0.828285648  -0.576566157   1.897918273
  C    0.006734948  -0.197817095   2.501820830
  F   -0.948951282   0.363804861   1.645221643
