7
0 1
  H   -0.519803633  -0.110834186   0.000000000
 Br    0.006830518  -1.446762766   0.000000000
  H    1.534161804   4.040051770  -0.892805366
  H    1.534161804   4.040051770   0.892805366
  H    1.584672878   2.494914826   0.000000000
  C    1.217016668   3.514700404   0.000000000
 Cl   -0.581637426   3.458152476   0.000000000
