7
0 1
  H   -0.702521814   0.041860819  -0.493308322
  I   -0.187423614   0.613641067   0.935060773
  H    0.998257786  -2.225508332  -1.440099991
  H    0.429886333  -3.707981044  -2.254867814
  H    1.503156651  -2.571324263  -3.116502265
  C    0.708857385  -2.669292493  -2.386143173
 Cl   -0.727135870  -1.781360677  -3.003573748
