11
0 1
  O   -0.240701088   1.999524425  -1.453316336
  H   -0.749410811   1.398189354  -0.900205020
  C    0.041786954   1.342830009  -2.680926899
  H    0.664870094   2.014850194  -3.266432542
  H    0.585166578   0.406156399  -2.527311245
  H   -0.867739438   1.129788836  -3.248683900
  H    1.327546650   1.485772472  -0.172520194
  H    1.506950402   0.929823571   1.522736490
  H    2.145293369  -0.071918835   0.186144321
  C    1.380743285   0.631126794   0.490252893
 Br   -0.346367971  -0.294738316   0.359987526
