8
0 1
  O   -0.839742903  -2.093669239  -1.692221928
  H   -0.350912242  -2.504938818  -2.408435995
  H   -0.169835468  -1.778391156  -1.074681996
  H   -0.978721696   2.411544022  -0.323533001
  H   -1.443456377   0.707587162  -0.640933658
  H   -1.835318069   1.470008392   0.933334661
  C   -1.140140040   1.430952680   0.104910929
 Br    0.584065777   0.821910930   0.823903189
