7
0 1
  H   -0.072045994   1.406971908  -0.521508829
 Cl   -0.835595874   2.302565376  -1.058046093
  H   -1.324590650  -1.772353689  -0.730271856
  H   -1.788880920  -1.192608469   0.898146482
  H   -1.895479127  -0.090470820  -0.508239777
  C   -1.367197221  -0.923024840  -0.061196025
 Br    0.479034205  -0.339216330   0.257351384
