8
0 1
  O   -0.911617218  -0.140255114  -0.402986320
  H   -0.020341759   0.227103403  -0.409711049
  H   -0.793861892  -1.082373528  -0.261385658
  H   -0.553445197   2.534960670   2.549890255
  H   -0.942296677   3.440991594   1.055879639
  H   -1.168042412   1.661349144   1.105462020
  C   -0.594140588   2.503731909   1.469178199
  I    1.427585527   2.216919534   0.768356959
