7
0 1
  H   -1.689467412   1.506010635  -1.449584931
  F   -2.546181215   1.870770032  -1.505622768
  H    1.741678389   0.574039612   3.234630981
  H    0.259422650   0.151526887   2.320990595
  H    1.181023810  -1.126497372   3.175946430
  C    1.234335776  -0.182238726   2.650907145
  I    2.415708224  -0.510529245   0.874400095
