7
0 1
  H   -0.507870575   0.917833145  -0.360493599
  I   -1.171783424   2.175692016   0.433163743
  H    2.891288425  -0.610929334   1.131311805
  H    1.255182469   0.022366956   1.490658145
  H    1.637751269  -1.699125723   1.802473504
  C    1.834501521  -0.837505972   1.178558873
  I    1.198651104  -1.336732481  -0.818432234
