16
indole ... benzene (stack) Monomer B
H    2.06737101   -0.57805685    3.49490475
C    2.14311338   -0.57196987    2.41575396
C    2.10265932    0.63365013    1.73434956
H    1.99554084    1.56703853    2.27203610
C    2.20540983    0.62434756    0.33333966
C    2.19524253    1.63366203   -0.67349928
H    2.11161860    2.69803059   -0.53325175
C    2.32582959    0.99280815   -1.88451747
N    2.43153522   -0.36008660   -1.67542289
C    2.34735531   -0.62434756   -0.33333966
C    2.39589311   -1.83984299    0.35175494
H    2.50271193   -2.78021794   -0.17294023
C    2.29112185   -1.79621168    1.73303617
H    2.32275342   -2.71826144    2.29763493
H    2.45348129   -1.05644621   -2.39897877
H    2.36204661    1.39803628   -2.88180774
