10
pyrazine dimer Monomer B
C    3.05059511    0.64313200    1.13004500
C    2.51485015   -0.64268943    1.13063100
N    2.24182908   -1.30673885    0.00000000
C    2.51485015   -0.64268943   -1.13063100
C    3.05059511    0.64313200   -1.13004500
N    3.32808005    1.30597985    0.00000000
H    3.26155326    1.15247121    2.06186400
H    2.29511463   -1.14774434    2.06239900
H    2.29511463   -1.14774434   -2.06239900
H    3.26155326    1.15247121   -2.06186400
