12
indole ... benzene (T-shape) Monomer A
C   -0.05265208   -1.39322578    0.00000000
C   -0.02554335   -0.69694010   -1.20829200
C    0.02634825    0.69672423   -1.20836500
C    0.05104226    1.39365754    0.00000000
C    0.02634825    0.69672423    1.20836500
C   -0.02554335   -0.69694010    1.20829200
H   -0.09743066   -2.47365597    0.00000000
H   -0.04050976   -1.23736007   -2.14459000
H    0.05095558    1.23653129   -2.14483800
H    0.08965764    2.47441242    0.00000000
H    0.05095558    1.23653129    2.14483800
H   -0.04050976   -1.23736007    2.14459000
