12
benzene dimer (T-shape) Monomer A
C   -1.08061500    0.00000000    0.00000000
C   -1.77925400   -1.20600800    0.00000000
C   -3.17317100   -1.20717700    0.00000000
C   -3.87015500    0.00000000    0.00000000
C   -3.17317100    1.20717700    0.00000000
C   -1.77925400    1.20600800    0.00000000
H    0.00000000    0.00000000    0.00000000
H   -1.23600200   -2.14163900    0.00000000
H   -3.71457500   -2.14356600    0.00000000
H   -4.95173000    0.00000000    0.00000000
H   -3.71457500    2.14356600    0.00000000
H   -1.23600200    2.14163900    0.00000000
