13
2-pyridoxine ... 2-aminopyridine Monomer B
N    2.23132451    0.00000000    0.00000000
C    2.90992456   -1.14532421    0.19259191
C    4.31829040   -1.16867747    0.19663701
C    5.01740413    0.00547708   -0.00172324
C    4.31301411    1.19444766   -0.20296147
C    2.93072517    1.13032803   -0.19284581
H    4.83710526   -2.10397523    0.35634574
H    6.09883289   -0.00310337   -0.00191124
H    4.81759630    2.13463205   -0.36468780
H    2.33994609    2.02525842   -0.34979090
N    2.17804733   -2.27220155    0.43515355
H    2.65945005   -3.14588817    0.31540886
H    1.20235207   -2.27044207    0.13317207
