15
adenine ... thymine (WC) Monomer B
N    6.67481402    0.15562755   -1.12807516
C    7.36768464   -0.03157353    0.03965251
C    6.74606885   -0.21318055    1.22599931
C    5.29042783   -0.20545954    1.23795900
N    4.67956062   -0.00891377    0.01310903
C    5.29317019    0.17623919   -1.20541710
C    7.46534058   -0.41995094    2.51700092
O    4.62204575   -0.36203166    2.26165430
O    4.69494076    0.34250657   -2.25336777
H    7.15511979    0.28845835   -2.00230090
H    3.63770438    0.00000000    0.00000000
H    8.44492934   -0.02477987   -0.04965000
H    7.19576037    0.35484120    3.23301874
H    7.18465244   -1.37309824    2.96239753
H    8.54311206   -0.40361701    2.36838509
