12
uracil dimer (HB) Monomer B
O    3.57974301    2.33432991    0.00000000
C    4.24398695    1.29745076    0.00000000
N    3.68840645    0.04794039    0.00000000
C    4.44443495   -1.09319205    0.00000000
C    5.79397461   -1.06957963    0.00000000
C    6.48961287    0.20252601    0.00000000
N    5.61466764    1.30502871    0.00000000
O    7.69526454    0.37559595    0.00000000
H    6.37358334   -1.97646944    0.00000000
H    2.66183482    0.00000000    0.00000000
H    6.04906882    2.21777858    0.00000000
H    3.87978064   -2.01369414    0.00000000
