10
pyrazine dimer Monomer B
C    7.22591217    0.64313200    1.13004500
C    6.69016721   -0.64268943    1.13063100
N    6.41714614   -1.30673885    0.00000000
C    6.69016721   -0.64268943   -1.13063100
C    7.22591217    0.64313200   -1.13004500
N    7.50339711    1.30597985    0.00000000
H    7.43687032    1.15247121    2.06186400
H    6.47043169   -1.14774434    2.06239900
H    6.47043169   -1.14774434   -2.06239900
H    7.43687032    1.15247121   -2.06186400
