12
benzene dimer (T-shape) Monomer B
C    2.91914987    0.00000000   -1.39406300
C    2.91962587    1.20723800   -0.69704700
C    2.91962587    1.20723800    0.69704700
C    2.91914987    0.00000000    1.39406300
C    2.91962587   -1.20723800    0.69704700
C    2.91962587   -1.20723800   -0.69704700
H    2.91531987    0.00000000   -2.47539900
H    2.91867387    2.14356500   -1.23823200
H    2.91867387    2.14356500    1.23823200
H    2.91531987    0.00000000    2.47539900
H    2.91867387   -2.14356500    1.23823200
H    2.91867387   -2.14356500   -1.23823200
