15
adenine ... thymine (stack) Monomer B
N    2.99545724    1.31891257    0.11516933
C    3.03377400    0.54413479    1.24823546
H    3.16693665    1.08421646    2.17449125
C    2.91312337   -0.80203603    1.21330635
C    2.96557400   -1.66422779    2.42938073
H    2.00979077   -2.16186744    2.58503772
H    3.72641607   -2.43503398    2.31548757
H    3.18912847   -1.07062898    3.31353818
C    2.71864461   -1.44032645   -0.08037966
O    2.55824530   -2.64008185   -0.25503382
N    2.72983954   -0.56083789   -1.16848449
H    2.55415065   -0.97799874   -2.07261756
C    2.81478193    0.81416973   -1.15279815
O    2.73211346    1.51385406   -2.14916326
H    3.03382334    2.32251674    0.17911856
