15
adenine ... thymine (WC) Monomer B
N    5.76538793    0.15562755   -1.12807516
C    6.45825855   -0.03157353    0.03965251
C    5.83664276   -0.21318055    1.22599931
C    4.38100173   -0.20545954    1.23795900
N    3.77013453   -0.00891377    0.01310903
C    4.38374409    0.17623919   -1.20541710
C    6.55591449   -0.41995094    2.51700092
O    3.71261965   -0.36203166    2.26165430
O    3.78551466    0.34250657   -2.25336777
H    6.24569369    0.28845835   -2.00230090
H    2.72827829    0.00000000    0.00000000
H    7.53550324   -0.02477987   -0.04965000
H    6.28633427    0.35484120    3.23301874
H    6.27522634   -1.37309824    2.96239753
H    7.63368597   -0.40361701    2.36838509
