16
indole ... benzene (stack) Monomer B
H    2.39256852   -0.57805685    3.49490475
C    2.46831089   -0.57196987    2.41575396
C    2.42785683    0.63365013    1.73434956
H    2.32073835    1.56703853    2.27203610
C    2.53060734    0.62434756    0.33333966
C    2.52044004    1.63366203   -0.67349928
H    2.43681611    2.69803059   -0.53325175
C    2.65102710    0.99280815   -1.88451747
N    2.75673273   -0.36008660   -1.67542289
C    2.67255282   -0.62434756   -0.33333966
C    2.72109062   -1.83984299    0.35175494
H    2.82790944   -2.78021794   -0.17294023
C    2.61631936   -1.79621168    1.73303617
H    2.64795093   -2.71826144    2.29763493
H    2.77867880   -1.05644621   -2.39897877
H    2.68724412    1.39803628   -2.88180774
