10
pyrazine dimer Monomer B
C    2.70265202    0.64313200    1.13004500
C    2.16690706   -0.64268943    1.13063100
N    1.89388599   -1.30673885    0.00000000
C    2.16690706   -0.64268943   -1.13063100
C    2.70265202    0.64313200   -1.13004500
N    2.98013696    1.30597985    0.00000000
H    2.91361017    1.15247121    2.06186400
H    1.94717154   -1.14774434    2.06239900
H    1.94717154   -1.14774434   -2.06239900
H    2.91361017    1.15247121   -2.06186400
