12
uracil dimer (HB) Monomer A
O    0.00000000    0.00000000    0.00000000
C   -0.66424394    1.03687915    0.00000000
N   -0.10866344    2.28638952    0.00000000
C   -0.86469194    3.42752195    0.00000000
C   -2.21423160    3.40390953    0.00000000
C   -2.90986986    2.13180389    0.00000000
N   -2.03492462    1.02930119    0.00000000
O   -4.11552152    1.95873396    0.00000000
H   -2.79384033    4.31079935    0.00000000
H    0.91790819    2.33432991    0.00000000
H   -2.46932580    0.11655133    0.00000000
H   -0.30003763    4.34802404    0.00000000
