13
phenol dimer Monomer B
O    2.32465210    0.00000000    0.00000000
C    2.92314452   -1.14289879   -0.48373245
H    2.92400156    0.41760444    0.62804116
C    2.22664811   -1.86762267   -1.44721153
C    2.78590273   -3.03591279   -1.95456799
C    4.03045910   -3.47935031   -1.50964741
C    4.71777259   -2.74469642   -0.54741031
C    4.16547256   -1.57495261   -0.02943675
H    1.26261782   -1.51302849   -1.78446706
H    2.24289221   -3.60008236   -2.69989621
H    4.45911904   -4.38751129   -1.90820423
H    5.68378613   -3.07749715   -0.19400516
H    4.69745296   -1.00425164    0.72233320
