13
2-pyridoxine ... 2-aminopyridine Monomer B
N    3.71887419    0.00000000    0.00000000
C    4.39747423   -1.14532421    0.19259191
C    5.80584008   -1.16867747    0.19663701
C    6.50495381    0.00547708   -0.00172324
C    5.80056379    1.19444766   -0.20296147
C    4.41827485    1.13032803   -0.19284581
H    6.32465494   -2.10397523    0.35634574
H    7.58638257   -0.00310337   -0.00191124
H    6.30514597    2.13463205   -0.36468780
H    3.82749576    2.02525842   -0.34979090
N    3.66559700   -2.27220155    0.43515355
H    4.14699972   -3.14588817    0.31540886
H    2.68990174   -2.27044207    0.13317207
