10
pyrazine dimer Monomer B
C    5.48619673    0.64313200    1.13004500
C    4.95045177   -0.64268943    1.13063100
N    4.67743070   -1.30673885    0.00000000
C    4.95045177   -0.64268943   -1.13063100
C    5.48619673    0.64313200   -1.13004500
N    5.76368167    1.30597985    0.00000000
H    5.69715487    1.15247121    2.06186400
H    4.73071625   -1.14774434    2.06239900
H    4.73071625   -1.14774434   -2.06239900
H    5.69715487    1.15247121   -2.06186400
