15
adenine ... thymine (stack) Monomer B
N    2.67686354    1.31891257    0.11516933
C    2.71518029    0.54413479    1.24823546
H    2.84834294    1.08421646    2.17449125
C    2.59452966   -0.80203603    1.21330635
C    2.64698029   -1.66422779    2.42938073
H    1.69119707   -2.16186744    2.58503772
H    3.40782236   -2.43503398    2.31548757
H    2.87053476   -1.07062898    3.31353818
C    2.40005091   -1.44032645   -0.08037966
O    2.23965160   -2.64008185   -0.25503382
N    2.41124583   -0.56083789   -1.16848449
H    2.23555694   -0.97799874   -2.07261756
C    2.49618822    0.81416973   -1.15279815
O    2.41351976    1.51385406   -2.14916326
H    2.71522963    2.32251674    0.17911856
