12
uracil dimer (HB) Monomer B
O    2.51500908    2.33432991    0.00000000
C    3.17925302    1.29745076    0.00000000
N    2.62367252    0.04794039    0.00000000
C    3.37970102   -1.09319205    0.00000000
C    4.72924068   -1.06957963    0.00000000
C    5.42487894    0.20252601    0.00000000
N    4.54993371    1.30502871    0.00000000
O    6.63053061    0.37559595    0.00000000
H    5.30884942   -1.97646944    0.00000000
H    1.59710089    0.00000000    0.00000000
H    4.98433489    2.21777858    0.00000000
H    2.81504671   -2.01369414    0.00000000
