15
adenine ... thymine (stack) Monomer B
N    6.49998802    1.31891257    0.11516933
C    6.53830478    0.54413479    1.24823546
H    6.67146743    1.08421646    2.17449125
C    6.41765415   -0.80203603    1.21330635
C    6.47010478   -1.66422779    2.42938073
H    5.51432155   -2.16186744    2.58503772
H    7.23094685   -2.43503398    2.31548757
H    6.69365925   -1.07062898    3.31353818
C    6.22317539   -1.44032645   -0.08037966
O    6.06277608   -2.64008185   -0.25503382
N    6.23437032   -0.56083789   -1.16848449
H    6.05868143   -0.97799874   -2.07261756
C    6.31931271    0.81416973   -1.15279815
O    6.23664424    1.51385406   -2.14916326
H    6.53835412    2.32251674    0.17911856
