12
benzene dimer (T-shape) Monomer B
C    1.70270520    0.00000000   -1.39406300
C    1.70318120    1.20723800   -0.69704700
C    1.70318120    1.20723800    0.69704700
C    1.70270520    0.00000000    1.39406300
C    1.70318120   -1.20723800    0.69704700
C    1.70318120   -1.20723800   -0.69704700
H    1.69887520    0.00000000   -2.47539900
H    1.70222920    2.14356500   -1.23823200
H    1.70222920    2.14356500    1.23823200
H    1.69887520    0.00000000    2.47539900
H    1.70222920   -2.14356500    1.23823200
H    1.70222920   -2.14356500   -1.23823200
