12
benzene dimer (stack) Monomer B
C    2.00660462    1.24405848    0.00000000
C    2.32158383    0.62213466   -1.20620500
C    2.32158383    0.62213466    1.20620500
C    2.95046967   -0.62169924   -1.20695400
C    3.26322512   -1.24492931    0.00000000
C    2.95046967   -0.62169924    1.20695400
H    1.50593441    2.20246266    0.00000000
H    2.07172555    1.10277815    2.14231500
H    3.19504494   -1.10408575    2.14379800
H    3.75255025   -2.20968592    0.00000000
H    3.19504494   -1.10408575   -2.14379800
H    2.07172555    1.10277815   -2.14231500
