16
indole ... benzene (T-shape) Monomer B
H    2.67706323    0.00000000    0.00000000
N    3.68438064    0.00505639    0.00000000
C    4.46603482    1.13260494    0.00000000
C    5.79491955    0.77235462    0.00000000
C    5.83631303   -0.65319316    0.00000000
C    4.48646840   -1.10492088    0.00000000
C    4.15180873   -2.46209497    0.00000000
C    5.19400103   -3.37617889    0.00000000
C    6.53832447   -2.95164129    0.00000000
C    6.86866435   -1.60670557    0.00000000
H    4.01234060    2.10959476    0.00000000
H    6.63030935    1.45148992    0.00000000
H    3.11941979   -2.78573081    0.00000000
H    4.97228359   -4.43482278    0.00000000
H    7.32438939   -3.69457014    0.00000000
H    7.90499013   -1.29459388    0.00000000
