15
adenine ... thymine (WC) Monomer A
N    0.00000000    0.00000000    0.00000000
C   -0.73868506   -0.15788977    1.11035541
C   -2.13945288   -0.16805356    0.96471256
C   -2.62949719   -0.00866579   -0.33120135
N   -1.91830983    0.15263475   -1.45484404
C   -0.61426222    0.14365987   -1.19354712
N   -3.15298100   -0.31069720    1.88351867
C   -4.24746601   -0.23720033    1.14487498
N   -3.99425073   -0.05660450   -0.18703010
N   -0.13617941   -0.28943385    2.30042802
H    0.05516135    0.26595902   -2.03565509
H   -5.25258545   -0.30895833    1.52540657
H   -4.66840486    0.02624532   -0.92965682
H    0.87687643   -0.32910573    2.35981141
H   -0.70858132   -0.45240707    3.10824060
