12
T-shaped Benzene Dimer Monomer B
C    0.00000000    0.00000000    1.60850000
C   -1.20507435    0.00000000    2.30425000
C   -1.20507435    0.00000000    3.69575000
C    0.00000000    0.00000000    4.39150000
C    1.20507435    0.00000000    3.69575000
C    1.20507435    0.00000000    2.30425000
H    0.00000000    0.00000000    0.52850000
H   -2.14038179    0.00000000    1.76425000
H   -2.14038179    0.00000000    4.23575000
H    0.00000000    0.00000000    5.47150000
H    2.14038179    0.00000000    4.23575000
H    2.14038179    0.00000000    1.76425000
