15
Benzene-H2S Dimer
C    0.00000000   -1.39150000    1.50016545
C    1.20507435   -0.69575000    1.50016545
C    1.20507435    0.69575000    1.50016545
C    0.00000000    1.39150000    1.50016545
C   -1.20507435    0.69575000    1.50016545
C   -1.20507435   -0.69575000    1.50016545
H    0.00000000   -2.47150000    1.50016545
H    2.14038179   -1.23575000    1.50016545
H    2.14038179    1.23575000    1.50016545
H    0.00000000    2.47150000    1.50016545
H   -2.14038179    1.23575000    1.50016545
H   -2.14038179   -1.23575000    1.50016545
S    0.00000000    0.00000000   -3.49983455
H    0.00000000    0.96172129   -2.57305544
H    0.00000000   -0.96172129   -2.57305544
