24
0 1
C    0.00000000    1.39150000   -2.80000000
C    1.20507435    0.69575000   -2.80000000
C    1.20507435   -0.69575000   -2.80000000
C    0.00000000   -1.39150000   -2.80000000
C   -1.20507435   -0.69575000   -2.80000000
C   -1.20507435    0.69575000   -2.80000000
H    0.00000000    2.47150000   -2.80000000
H    2.14038179    1.23575000   -2.80000000
H    2.14038179   -1.23575000   -2.80000000
H    0.00000000   -2.47150000   -2.80000000
H   -2.14038179   -1.23575000   -2.80000000
H   -2.14038179    1.23575000   -2.80000000
C    0.00000000    0.00000000    1.40850000
C   -1.20507435    0.00000000    2.10425000
C   -1.20507435    0.00000000    3.49575000
C    0.00000000    0.00000000    4.19150000
C    1.20507435    0.00000000    3.49575000
C    1.20507435    0.00000000    2.10425000
H    0.00000000    0.00000000    0.32850000
H   -2.14038179    0.00000000    1.56425000
H   -2.14038179    0.00000000    4.03575000
H    0.00000000    0.00000000    5.27150000
H    2.14038179    0.00000000    4.03575000
H    2.14038179    0.00000000    1.56425000
