22
Pyridine Dimer T3 Configuration Dimer
N   -1.39803800    3.50000000    0.00000000
C   -0.69853710    3.50000000   -1.14013004
C    0.69418190    3.50000000   -1.19534022
C    1.40674710    3.50000000    0.00000000
C    0.69418190    3.50000000    1.19534022
C   -0.69853710    3.50000000    1.14013004
H   -1.28166922    3.50000000   -2.05688474
H    1.19992540    3.50000000   -2.15254776
H    2.48854710    3.50000000    0.00000000
H    1.19992540    3.50000000    2.15254776
H   -1.28166922    3.50000000    2.05688474
N    1.39803800   -3.50000000    0.00000000
C    0.69853710   -4.64013004    0.00000000
C   -0.69418190   -4.69534022    0.00000000
C   -1.40674710   -3.50000000    0.00000000
C   -0.69418190   -2.30465978    0.00000000
C    0.69853710   -2.35986996    0.00000000
H    1.28166922   -5.55688474    0.00000000
H   -1.19992540   -5.65254776    0.00000000
H   -2.48854710   -3.50000000    0.00000000
H   -1.19992540   -1.34745224    0.00000000
H    1.28166922   -1.44311526    0.00000000
