24
Parallel Displaced Benzene Dimer Interplane 3.2 Dimer
C    0.80000000   -1.60000000   -1.39150000
C    2.00507435   -1.60000000   -0.69575000
C    2.00507435   -1.60000000    0.69575000
C    0.80000000   -1.60000000    1.39150000
C   -0.40507435   -1.60000000    0.69575000
C   -0.40507435   -1.60000000   -0.69575000
H    0.80000000   -1.60000000   -2.47150000
H    2.94038179   -1.60000000   -1.23575000
H    2.94038179   -1.60000000    1.23575000
H    0.80000000   -1.60000000    2.47150000
H   -1.34038179   -1.60000000    1.23575000
H   -1.34038179   -1.60000000   -1.23575000
C   -0.80000000    1.60000000    1.39150000
C    0.40507435    1.60000000    0.69575000
C    0.40507435    1.60000000   -0.69575000
C   -0.80000000    1.60000000   -1.39150000
C   -2.00507435    1.60000000   -0.69575000
C   -2.00507435    1.60000000    0.69575000
H   -0.80000000    1.60000000    2.47150000
H    1.34038179    1.60000000    1.23575000
H    1.34038179    1.60000000   -1.23575000
H   -0.80000000    1.60000000   -2.47150000
H   -2.94038179    1.60000000   -1.23575000
H   -2.94038179    1.60000000    1.23575000
