22
0 1
N   -1.39803800    2.35000000    0.00000000
C   -0.69853710    2.35000000   -1.14013004
C    0.69418190    2.35000000   -1.19534022
C    1.40674710    2.35000000    0.00000000
C    0.69418190    2.35000000    1.19534022
C   -0.69853710    2.35000000    1.14013004
H   -1.28166922    2.35000000   -2.05688474
H    1.19992540    2.35000000   -2.15254776
H    2.48854710    2.35000000    0.00000000
H    1.19992540    2.35000000    2.15254776
H   -1.28166922    2.35000000    2.05688474
N    1.39803800   -2.35000000    0.00000000
C    0.69853710   -3.49013004    0.00000000
C   -0.69418190   -3.54534022    0.00000000
C   -1.40674710   -2.35000000    0.00000000
C   -0.69418190   -1.15465978    0.00000000
C    0.69853710   -1.20986996    0.00000000
H    1.28166922   -4.40688474    0.00000000
H   -1.19992540   -4.50254776    0.00000000
H   -2.48854710   -2.35000000    0.00000000
H   -1.19992540   -0.19745224    0.00000000
H    1.28166922   -0.29311526    0.00000000
