24
T-shaped Benzene Dimer Dimer
C    0.00000000    1.39150000   -2.15000000
C    1.20507435    0.69575000   -2.15000000
C    1.20507435   -0.69575000   -2.15000000
C    0.00000000   -1.39150000   -2.15000000
C   -1.20507435   -0.69575000   -2.15000000
C   -1.20507435    0.69575000   -2.15000000
H    0.00000000    2.47150000   -2.15000000
H    2.14038179    1.23575000   -2.15000000
H    2.14038179   -1.23575000   -2.15000000
H    0.00000000   -2.47150000   -2.15000000
H   -2.14038179   -1.23575000   -2.15000000
H   -2.14038179    1.23575000   -2.15000000
C    0.00000000    0.00000000    0.75850000
C   -1.20507435    0.00000000    1.45425000
C   -1.20507435    0.00000000    2.84575000
C    0.00000000    0.00000000    3.54150000
C    1.20507435    0.00000000    2.84575000
C    1.20507435    0.00000000    1.45425000
H    0.00000000    0.00000000   -0.32150000
H   -2.14038179    0.00000000    0.91425000
H   -2.14038179    0.00000000    3.38575000
H    0.00000000    0.00000000    4.62150000
H    2.14038179    0.00000000    3.38575000
H    2.14038179    0.00000000    0.91425000
