11
0 1
N    1.39803800   -2.85000000    0.00000000
C    0.69853710   -3.99013004    0.00000000
C   -0.69418190   -4.04534022    0.00000000
C   -1.40674710   -2.85000000    0.00000000
C   -0.69418190   -1.65465978    0.00000000
C    0.69853710   -1.70986996    0.00000000
H    1.28166922   -4.90688474    0.00000000
H   -1.19992540   -5.00254776    0.00000000
H   -2.48854710   -2.85000000    0.00000000
H   -1.19992540   -0.69745224    0.00000000
H    1.28166922   -0.79311526    0.00000000
