12
0 1
C    0.50000000   -1.60000000   -1.39150000
C    1.70507435   -1.60000000   -0.69575000
C    1.70507435   -1.60000000    0.69575000
C    0.50000000   -1.60000000    1.39150000
C   -0.70507435   -1.60000000    0.69575000
C   -0.70507435   -1.60000000   -0.69575000
H    0.50000000   -1.60000000   -2.47150000
H    2.64038179   -1.60000000   -1.23575000
H    2.64038179   -1.60000000    1.23575000
H    0.50000000   -1.60000000    2.47150000
H   -1.64038179   -1.60000000    1.23575000
H   -1.64038179   -1.60000000   -1.23575000
