12
Benzene-Methane Monomer A
C   -0.70286550    0.88610024   -1.21739876
C   -1.40573100    0.88610024    0.00000000
C   -0.70286550    0.88610024    1.21739876
C    0.70286550    0.88610024    1.21739876
C    1.40573100    0.88610024    0.00000000
C    0.70286550    0.88610024   -1.21739876
H   -1.25047050    0.88610024   -2.16587844
H   -2.50094100    0.88610024    0.00000000
H   -1.25047050    0.88610024    2.16587844
H    1.25047050    0.88610024    2.16587844
H    2.50094100    0.88610024    0.00000000
H    1.25047050    0.88610024   -2.16587844
