11
Pyridine Dimer T3 Configuration Monomer B
N    1.39803800   -2.65000000    0.00000000
C    0.69853710   -3.79013004    0.00000000
C   -0.69418190   -3.84534022    0.00000000
C   -1.40674710   -2.65000000    0.00000000
C   -0.69418190   -1.45465978    0.00000000
C    0.69853710   -1.50986996    0.00000000
H    1.28166922   -4.70688474    0.00000000
H   -1.19992540   -4.80254776    0.00000000
H   -2.48854710   -2.65000000    0.00000000
H   -1.19992540   -0.49745224    0.00000000
H    1.28166922   -0.59311526    0.00000000
