17
0 1
C   -0.70286550    0.71569635   -1.21739876
C   -1.40573100    0.71569635    0.00000000
C   -0.70286550    0.71569635    1.21739876
C    0.70286550    0.71569635    1.21739876
C    1.40573100    0.71569635    0.00000000
C    0.70286550    0.71569635   -1.21739876
H   -1.25047050    0.71569635   -2.16587844
H   -2.50094100    0.71569635    0.00000000
H   -1.25047050    0.71569635    2.16587844
H    1.25047050    0.71569635    2.16587844
H    2.50094100    0.71569635    0.00000000
H    1.25047050    0.71569635   -2.16587844
C    0.00000000   -3.48430365    0.00000000
H    0.00000000   -2.38480065    0.00000000
H   -0.51831072   -3.85080444   -0.89774050
H    1.03662144   -3.85080444    0.00000000
H   -0.51831072   -3.85080444    0.89774050
