12
T-shaped Benzene Dimer Monomer B
C    0.00000000    0.00000000    1.25850000
C   -1.20507435    0.00000000    1.95425000
C   -1.20507435    0.00000000    3.34575000
C    0.00000000    0.00000000    4.04150000
C    1.20507435    0.00000000    3.34575000
C    1.20507435    0.00000000    1.95425000
H    0.00000000    0.00000000    0.17850000
H   -2.14038179    0.00000000    1.41425000
H   -2.14038179    0.00000000    3.88575000
H    0.00000000    0.00000000    5.12150000
H    2.14038179    0.00000000    3.88575000
H    2.14038179    0.00000000    1.41425000
