15
0 1
C    0.00000000   -1.39150000    1.01477684
C    1.20507435   -0.69575000    1.01477684
C    1.20507435    0.69575000    1.01477684
C    0.00000000    1.39150000    1.01477684
C   -1.20507435    0.69575000    1.01477684
C   -1.20507435   -0.69575000    1.01477684
H    0.00000000   -2.47150000    1.01477684
H    2.14038179   -1.23575000    1.01477684
H    2.14038179    1.23575000    1.01477684
H    0.00000000    2.47150000    1.01477684
H   -2.14038179    1.23575000    1.01477684
H   -2.14038179   -1.23575000    1.01477684
S    0.00000000    0.00000000   -2.38522316
H    0.00000000    0.96172129   -1.45844405
H    0.00000000   -0.96172129   -1.45844405
