22
Pyridine Dimer T3 Configuration Dimer
N   -1.39803800    4.00000000    0.00000000
C   -0.69853710    4.00000000   -1.14013004
C    0.69418190    4.00000000   -1.19534022
C    1.40674710    4.00000000    0.00000000
C    0.69418190    4.00000000    1.19534022
C   -0.69853710    4.00000000    1.14013004
H   -1.28166922    4.00000000   -2.05688474
H    1.19992540    4.00000000   -2.15254776
H    2.48854710    4.00000000    0.00000000
H    1.19992540    4.00000000    2.15254776
H   -1.28166922    4.00000000    2.05688474
N    1.39803800   -4.00000000    0.00000000
C    0.69853710   -5.14013004    0.00000000
C   -0.69418190   -5.19534022    0.00000000
C   -1.40674710   -4.00000000    0.00000000
C   -0.69418190   -2.80465978    0.00000000
C    0.69853710   -2.85986996    0.00000000
H    1.28166922   -6.05688474    0.00000000
H   -1.19992540   -6.15254776    0.00000000
H   -2.48854710   -4.00000000    0.00000000
H   -1.19992540   -1.84745224    0.00000000
H    1.28166922   -1.94311526    0.00000000
