11
0 1
N    1.39803800   -4.50000000    0.00000000
C    0.69853710   -5.64013004    0.00000000
C   -0.69418190   -5.69534022    0.00000000
C   -1.40674710   -4.50000000    0.00000000
C   -0.69418190   -3.30465978    0.00000000
C    0.69853710   -3.35986996    0.00000000
H    1.28166922   -6.55688474    0.00000000
H   -1.19992540   -6.65254776    0.00000000
H   -2.48854710   -4.50000000    0.00000000
H   -1.19992540   -2.34745224    0.00000000
H    1.28166922   -2.44311526    0.00000000
