10
Methane Dimer Dimer
C    0.00000000    1.70000000    0.00000000
H    0.00000000    2.79950300    0.00000000
H   -0.51831072    1.33349921    0.89774050
H   -0.51831072    1.33349921   -0.89774050
H    1.03662144    1.33349921    0.00000000
C    0.00000000   -1.70000000    0.00000000
H    0.00000000   -2.79950300    0.00000000
H    0.51831072   -1.33349921   -0.89774050
H    0.51831072   -1.33349921    0.89774050
H   -1.03662144   -1.33349921    0.00000000
