12
T-shaped Benzene Dimer Monomer B
C    0.00000000    0.00000000    1.35850000
C   -1.20507435    0.00000000    2.05425000
C   -1.20507435    0.00000000    3.44575000
C    0.00000000    0.00000000    4.14150000
C    1.20507435    0.00000000    3.44575000
C    1.20507435    0.00000000    2.05425000
H    0.00000000    0.00000000    0.27850000
H   -2.14038179    0.00000000    1.51425000
H   -2.14038179    0.00000000    3.98575000
H    0.00000000    0.00000000    5.22150000
H    2.14038179    0.00000000    3.98575000
H    2.14038179    0.00000000    1.51425000
