11
0 1
N    1.39803800   -2.18000000    0.00000000
C    0.69853710   -3.32013004    0.00000000
C   -0.69418190   -3.37534022    0.00000000
C   -1.40674710   -2.18000000    0.00000000
C   -0.69418190   -0.98465978    0.00000000
C    0.69853710   -1.03986996    0.00000000
H    1.28166922   -4.23688474    0.00000000
H   -1.19992540   -4.33254776    0.00000000
H   -2.48854710   -2.18000000    0.00000000
H   -1.19992540   -0.02745224    0.00000000
H    1.28166922   -0.12311526    0.00000000
