12
T-shaped Benzene Dimer Monomer A
C    0.00000000    1.39150000   -3.00000000
C    1.20507435    0.69575000   -3.00000000
C    1.20507435   -0.69575000   -3.00000000
C    0.00000000   -1.39150000   -3.00000000
C   -1.20507435   -0.69575000   -3.00000000
C   -1.20507435    0.69575000   -3.00000000
H    0.00000000    2.47150000   -3.00000000
H    2.14038179    1.23575000   -3.00000000
H    2.14038179   -1.23575000   -3.00000000
H    0.00000000   -2.47150000   -3.00000000
H   -2.14038179   -1.23575000   -3.00000000
H   -2.14038179    1.23575000   -3.00000000
