24
T-shaped Benzene Dimer Dimer
C    0.00000000    1.39150000   -2.30000000
C    1.20507435    0.69575000   -2.30000000
C    1.20507435   -0.69575000   -2.30000000
C    0.00000000   -1.39150000   -2.30000000
C   -1.20507435   -0.69575000   -2.30000000
C   -1.20507435    0.69575000   -2.30000000
H    0.00000000    2.47150000   -2.30000000
H    2.14038179    1.23575000   -2.30000000
H    2.14038179   -1.23575000   -2.30000000
H    0.00000000   -2.47150000   -2.30000000
H   -2.14038179   -1.23575000   -2.30000000
H   -2.14038179    1.23575000   -2.30000000
C    0.00000000    0.00000000    0.90850000
C   -1.20507435    0.00000000    1.60425000
C   -1.20507435    0.00000000    2.99575000
C    0.00000000    0.00000000    3.69150000
C    1.20507435    0.00000000    2.99575000
C    1.20507435    0.00000000    1.60425000
H    0.00000000    0.00000000   -0.17150000
H   -2.14038179    0.00000000    1.06425000
H   -2.14038179    0.00000000    3.53575000
H    0.00000000    0.00000000    4.77150000
H    2.14038179    0.00000000    3.53575000
H    2.14038179    0.00000000    1.06425000
