11
Pyridine Dimer T3 Configuration Monomer B
N    1.39803800   -2.30000000    0.00000000
C    0.69853710   -3.44013004    0.00000000
C   -0.69418190   -3.49534022    0.00000000
C   -1.40674710   -2.30000000    0.00000000
C   -0.69418190   -1.10465978    0.00000000
C    0.69853710   -1.15986996    0.00000000
H    1.28166922   -4.35688474    0.00000000
H   -1.19992540   -4.45254776    0.00000000
H   -2.48854710   -2.30000000    0.00000000
H   -1.19992540   -0.14745224    0.00000000
H    1.28166922   -0.24311526    0.00000000
