24
Parallel Displaced Benzene Dimer Interplane 3.4 Dimer
C    0.30000000   -1.70000000   -1.39150000
C    1.50507435   -1.70000000   -0.69575000
C    1.50507435   -1.70000000    0.69575000
C    0.30000000   -1.70000000    1.39150000
C   -0.90507435   -1.70000000    0.69575000
C   -0.90507435   -1.70000000   -0.69575000
H    0.30000000   -1.70000000   -2.47150000
H    2.44038179   -1.70000000   -1.23575000
H    2.44038179   -1.70000000    1.23575000
H    0.30000000   -1.70000000    2.47150000
H   -1.84038179   -1.70000000    1.23575000
H   -1.84038179   -1.70000000   -1.23575000
C   -0.30000000    1.70000000    1.39150000
C    0.90507435    1.70000000    0.69575000
C    0.90507435    1.70000000   -0.69575000
C   -0.30000000    1.70000000   -1.39150000
C   -1.50507435    1.70000000   -0.69575000
C   -1.50507435    1.70000000    0.69575000
H   -0.30000000    1.70000000    2.47150000
H    1.84038179    1.70000000    1.23575000
H    1.84038179    1.70000000   -1.23575000
H   -0.30000000    1.70000000   -2.47150000
H   -2.44038179    1.70000000   -1.23575000
H   -2.44038179    1.70000000    1.23575000
