10
0 1
C    0.00000000    2.90000000    0.00000000
H    0.00000000    3.99950300    0.00000000
H   -0.51831072    2.53349921    0.89774050
H   -0.51831072    2.53349921   -0.89774050
H    1.03662144    2.53349921    0.00000000
C    0.00000000   -2.90000000    0.00000000
H    0.00000000   -3.99950300    0.00000000
H    0.51831072   -2.53349921   -0.89774050
H    0.51831072   -2.53349921    0.89774050
H   -1.03662144   -2.53349921    0.00000000
