12
0 1
C    0.00000000    2.00000000   -1.39150000
C    1.20507435    2.00000000   -0.69575000
C    1.20507435    2.00000000    0.69575000
C    0.00000000    2.00000000    1.39150000
C   -1.20507435    2.00000000    0.69575000
C   -1.20507435    2.00000000   -0.69575000
H    0.00000000    2.00000000   -2.47150000
H    2.14038179    2.00000000   -1.23575000
H    2.14038179    2.00000000    1.23575000
H    0.00000000    2.00000000    2.47150000
H   -2.14038179    2.00000000    1.23575000
H   -2.14038179    2.00000000   -1.23575000
