15
0 1
C    0.00000000   -1.39150000    0.95410326
C    1.20507435   -0.69575000    0.95410326
C    1.20507435    0.69575000    0.95410326
C    0.00000000    1.39150000    0.95410326
C   -1.20507435    0.69575000    0.95410326
C   -1.20507435   -0.69575000    0.95410326
H    0.00000000   -2.47150000    0.95410326
H    2.14038179   -1.23575000    0.95410326
H    2.14038179    1.23575000    0.95410326
H    0.00000000    2.47150000    0.95410326
H   -2.14038179    1.23575000    0.95410326
H   -2.14038179   -1.23575000    0.95410326
S    0.00000000    0.00000000   -2.24589674
H    0.00000000    0.96172129   -1.31911762
H    0.00000000   -0.96172129   -1.31911762
