12
Parallel Displaced Benzene Dimer Interplane 3.6 Monomer B
C   -0.90000000    1.80000000    1.39150000
C    0.30507435    1.80000000    0.69575000
C    0.30507435    1.80000000   -0.69575000
C   -0.90000000    1.80000000   -1.39150000
C   -2.10507435    1.80000000   -0.69575000
C   -2.10507435    1.80000000    0.69575000
H   -0.90000000    1.80000000    2.47150000
H    1.24038179    1.80000000    1.23575000
H    1.24038179    1.80000000   -1.23575000
H   -0.90000000    1.80000000   -2.47150000
H   -3.04038179    1.80000000   -1.23575000
H   -3.04038179    1.80000000    1.23575000
