24
0 1
C    0.00000000    1.39150000   -2.55000000
C    1.20507435    0.69575000   -2.55000000
C    1.20507435   -0.69575000   -2.55000000
C    0.00000000   -1.39150000   -2.55000000
C   -1.20507435   -0.69575000   -2.55000000
C   -1.20507435    0.69575000   -2.55000000
H    0.00000000    2.47150000   -2.55000000
H    2.14038179    1.23575000   -2.55000000
H    2.14038179   -1.23575000   -2.55000000
H    0.00000000   -2.47150000   -2.55000000
H   -2.14038179   -1.23575000   -2.55000000
H   -2.14038179    1.23575000   -2.55000000
C    0.00000000    0.00000000    1.15850000
C   -1.20507435    0.00000000    1.85425000
C   -1.20507435    0.00000000    3.24575000
C    0.00000000    0.00000000    3.94150000
C    1.20507435    0.00000000    3.24575000
C    1.20507435    0.00000000    1.85425000
H    0.00000000    0.00000000    0.07850000
H   -2.14038179    0.00000000    1.31425000
H   -2.14038179    0.00000000    3.78575000
H    0.00000000    0.00000000    5.02150000
H    2.14038179    0.00000000    3.78575000
H    2.14038179    0.00000000    1.31425000
