12
T-shaped Benzene Dimer Monomer B
C    0.00000000    0.00000000    0.95850000
C   -1.20507435    0.00000000    1.65425000
C   -1.20507435    0.00000000    3.04575000
C    0.00000000    0.00000000    3.74150000
C    1.20507435    0.00000000    3.04575000
C    1.20507435    0.00000000    1.65425000
H    0.00000000    0.00000000   -0.12150000
H   -2.14038179    0.00000000    1.11425000
H   -2.14038179    0.00000000    3.58575000
H    0.00000000    0.00000000    4.82150000
H    2.14038179    0.00000000    3.58575000
H    2.14038179    0.00000000    1.11425000
