12
0 1
C    0.10000000   -1.70000000   -1.39150000
C    1.30507435   -1.70000000   -0.69575000
C    1.30507435   -1.70000000    0.69575000
C    0.10000000   -1.70000000    1.39150000
C   -1.10507435   -1.70000000    0.69575000
C   -1.10507435   -1.70000000   -0.69575000
H    0.10000000   -1.70000000   -2.47150000
H    2.24038179   -1.70000000   -1.23575000
H    2.24038179   -1.70000000    1.23575000
H    0.10000000   -1.70000000    2.47150000
H   -2.04038179   -1.70000000    1.23575000
H   -2.04038179   -1.70000000   -1.23575000
