12
0 1
C    0.60000000   -1.80000000   -1.39150000
C    1.80507435   -1.80000000   -0.69575000
C    1.80507435   -1.80000000    0.69575000
C    0.60000000   -1.80000000    1.39150000
C   -0.60507435   -1.80000000    0.69575000
C   -0.60507435   -1.80000000   -0.69575000
H    0.60000000   -1.80000000   -2.47150000
H    2.74038179   -1.80000000   -1.23575000
H    2.74038179   -1.80000000    1.23575000
H    0.60000000   -1.80000000    2.47150000
H   -1.54038179   -1.80000000    1.23575000
H   -1.54038179   -1.80000000   -1.23575000
