17
Benzene-Methane Dimer
C   -0.70286550    0.56233284   -1.21739876
C   -1.40573100    0.56233284    0.00000000
C   -0.70286550    0.56233284    1.21739876
C    0.70286550    0.56233284    1.21739876
C    1.40573100    0.56233284    0.00000000
C    0.70286550    0.56233284   -1.21739876
H   -1.25047050    0.56233284   -2.16587844
H   -2.50094100    0.56233284    0.00000000
H   -1.25047050    0.56233284    2.16587844
H    1.25047050    0.56233284    2.16587844
H    2.50094100    0.56233284    0.00000000
H    1.25047050    0.56233284   -2.16587844
C    0.00000000   -2.73766716    0.00000000
H    0.00000000   -1.63816416    0.00000000
H   -0.51831072   -3.10416795   -0.89774050
H    1.03662144   -3.10416795    0.00000000
H   -0.51831072   -3.10416795    0.89774050
