24
T-shaped Benzene Dimer Dimer
C    0.00000000    1.39150000   -2.25000000
C    1.20507435    0.69575000   -2.25000000
C    1.20507435   -0.69575000   -2.25000000
C    0.00000000   -1.39150000   -2.25000000
C   -1.20507435   -0.69575000   -2.25000000
C   -1.20507435    0.69575000   -2.25000000
H    0.00000000    2.47150000   -2.25000000
H    2.14038179    1.23575000   -2.25000000
H    2.14038179   -1.23575000   -2.25000000
H    0.00000000   -2.47150000   -2.25000000
H   -2.14038179   -1.23575000   -2.25000000
H   -2.14038179    1.23575000   -2.25000000
C    0.00000000    0.00000000    0.85850000
C   -1.20507435    0.00000000    1.55425000
C   -1.20507435    0.00000000    2.94575000
C    0.00000000    0.00000000    3.64150000
C    1.20507435    0.00000000    2.94575000
C    1.20507435    0.00000000    1.55425000
H    0.00000000    0.00000000   -0.22150000
H   -2.14038179    0.00000000    1.01425000
H   -2.14038179    0.00000000    3.48575000
H    0.00000000    0.00000000    4.72150000
H    2.14038179    0.00000000    3.48575000
H    2.14038179    0.00000000    1.01425000
