12
0 1
C    0.00000000   -1.39150000    1.16646078
C    1.20507435   -0.69575000    1.16646078
C    1.20507435    0.69575000    1.16646078
C    0.00000000    1.39150000    1.16646078
C   -1.20507435    0.69575000    1.16646078
C   -1.20507435   -0.69575000    1.16646078
H    0.00000000   -2.47150000    1.16646078
H    2.14038179   -1.23575000    1.16646078
H    2.14038179    1.23575000    1.16646078
H    0.00000000    2.47150000    1.16646078
H   -2.14038179    1.23575000    1.16646078
H   -2.14038179   -1.23575000    1.16646078
