17
Benzene-Methane Dimer
C   -0.70286550    0.61345401   -1.21739876
C   -1.40573100    0.61345401    0.00000000
C   -0.70286550    0.61345401    1.21739876
C    0.70286550    0.61345401    1.21739876
C    1.40573100    0.61345401    0.00000000
C    0.70286550    0.61345401   -1.21739876
H   -1.25047050    0.61345401   -2.16587844
H   -2.50094100    0.61345401    0.00000000
H   -1.25047050    0.61345401    2.16587844
H    1.25047050    0.61345401    2.16587844
H    2.50094100    0.61345401    0.00000000
H    1.25047050    0.61345401   -2.16587844
C    0.00000000   -2.98654599    0.00000000
H    0.00000000   -1.88704299    0.00000000
H   -0.51831072   -3.35304678   -0.89774050
H    1.03662144   -3.35304678    0.00000000
H   -0.51831072   -3.35304678    0.89774050
