12
0 1
C   -0.70286550    0.53677226   -1.21739876
C   -1.40573100    0.53677226    0.00000000
C   -0.70286550    0.53677226    1.21739876
C    0.70286550    0.53677226    1.21739876
C    1.40573100    0.53677226    0.00000000
C    0.70286550    0.53677226   -1.21739876
H   -1.25047050    0.53677226   -2.16587844
H   -2.50094100    0.53677226    0.00000000
H   -1.25047050    0.53677226    2.16587844
H    1.25047050    0.53677226    2.16587844
H    2.50094100    0.53677226    0.00000000
H    1.25047050    0.53677226   -2.16587844
