11
0 1
N    1.39803800   -2.75000000    0.00000000
C    0.69853710   -3.89013004    0.00000000
C   -0.69418190   -3.94534022    0.00000000
C   -1.40674710   -2.75000000    0.00000000
C   -0.69418190   -1.55465978    0.00000000
C    0.69853710   -1.60986996    0.00000000
H    1.28166922   -4.80688474    0.00000000
H   -1.19992540   -4.90254776    0.00000000
H   -2.48854710   -2.75000000    0.00000000
H   -1.19992540   -0.59745224    0.00000000
H    1.28166922   -0.69311526    0.00000000
