           7

H        3.7318656660        -1.0750692840         0.8742045060
C        3.4843200100        -0.4686308600         0.0000000000
C        2.0192150530        -0.1854755220         0.0000000000
H        3.7318656660        -1.0750692840        -0.8742045060
H        4.0668087090         0.4482716630         0.0000000000
H        1.3364337210        -1.0491630900         0.0000000000
O        1.5545796050         0.9354262180         0.0000000000
