           8

C        2.0889964000         0.0539525260         0.0000000000
O        1.7279476580        -1.0984900850         0.0000000000
O        1.2293101090         1.0872211940         0.0000000000
C        3.5178592140         0.5130455740         0.0000000000
H        0.3240015860         0.7327782410         0.0000000000
H        4.1796918500        -0.3454809470         0.0000000000
H        3.7052160310         1.1312343270        -0.8768818600
H        3.7052160310         1.1312343270         0.8768818600
