           6

H        2.7722367330        -1.6202967510         0.8745754830
C        2.3053368810        -1.1626473770         0.0000000000
H        1.2232570650        -1.2790683550         0.0000000000
H        2.7722367330        -1.6202967510        -0.8745754830
N        2.7347323770         0.2414183020         0.0000000000
O        1.8382792160         1.0453707770         0.0000000000
