          12

C        2.5656533050        -1.2754460160         0.0000000000
H        2.5292948540        -1.9178319450        -0.8777735480
H        2.5292948540        -1.9178319450         0.8777735480
C        1.3420996010        -0.3882437600         0.0000000000
H        3.5031520050        -0.7230618700         0.0000000000
O        0.2132089490        -0.8668551430         0.0000000000
N        1.5639921600         0.9427198650         0.0000000000
C        0.4814173070         1.9148289750         0.0000000000
H        2.5113592120         1.2711024310         0.0000000000
H       -0.1499736090         1.7956160140        -0.8780623480
H       -0.1499736090         1.7956160140         0.8780623480
H        0.9115046970         2.9120968700         0.0000000000
