           6

O       -1.3175403290         0.6263000440        -0.1489764540
C       -2.1421313870        -0.4605775130         0.2757910090
H       -1.7082567510         1.0379261770        -0.9229444240
H       -3.1295598080        -0.1124852780         0.5836462320
H       -2.2475427850        -1.2152062060        -0.5054140340
H       -1.6456052900        -0.9121707560         1.1298265070
