           6

O       -2.0338011200        -0.3678389820         0.1436318120
C       -3.2221128740         0.2886566150        -0.2708998800
H       -1.3546426340         0.2889481790         0.3392321560
H       -3.9539894350        -0.4825576130        -0.5003402260
H       -3.6296500240         0.9277723030         0.5168914140
H       -3.0636644800         0.8934372370        -1.1679509740
