           6

O       -3.0503303110         0.1710664750        -0.4584270990
H       -3.8568659800        -0.1599549210        -0.8597378500
C       -3.3159725220         0.5791662200         0.8876215480
H       -3.6823907670        -0.2512765750         1.4923937220
H       -4.0339843370         1.3995193300         0.9148862760
H       -2.3709652210         0.9222116960         1.2991263290
