          10

H        2.7866691010         0.0549191240        -2.2790411560
C        2.0751227290         0.0626003400        -1.4552300280
H        1.4043729430        -0.7886875580        -1.5177984740
C        2.7757299430         0.0979988380        -0.1223566220
H        1.4767998030         0.9723618060        -1.5474200570
O        2.3244456960        -0.4649734910         0.8565902010
C        4.0562782020         0.8847578710        -0.0414624180
H        4.8233371450         0.3821807590        -0.6341377070
H        3.9217365180         1.8754209300        -0.4776519020
H        4.3893628720         0.9671479550         0.9883310630
