           6

H        3.2642047780         0.1892111230         2.1782995890
C        2.4929994870         0.3340614520         1.4218982630
H        1.8212591840        -0.5171860260         1.3424459670
H        1.9495017070         1.2439808050         1.6863324990
N        3.1881460390         0.6338047990         0.1609351980
O        2.8080584140        -0.0004202470        -0.7884114360
