           8

H        2.2334316220        -1.1766214910         0.0196588590
O        2.0657943450        -0.2238996190         0.0066884320
C        0.7295257770        -0.0497377680        -0.0051110590
O       -0.0308215230        -0.9895548280        -0.0048965080
C        0.3446726970         1.3976661330        -0.0097937360
H       -0.7301384080         1.4976616740        -0.1107359000
H        0.8563669740         1.9117333270        -0.8215635660
H        0.6741852170         1.8561655960         0.9223397990
