           9

H       -2.7507207110        -0.4837920610         0.1608970770
N       -2.0928752690         0.2688586860         0.0931620300
C       -0.7590061680         0.0529918590        -0.0163227200
H       -2.4304561680         1.2155216810         0.0876055120
C       -0.3143643000        -1.3895310050        -0.0466363880
O        0.0288913820         0.9844732410        -0.1034497250
H       -1.0839688000        -2.0790120110         0.2934177720
H       -0.0406867900        -1.6437433610        -1.0704416640
H        0.5805831410        -1.4983885560         0.5601725210
