          10

H        1.3595034150        -1.7569330350        -1.0731815970
C        0.6889616160        -1.7511814120        -0.2128182750
H       -0.3391431160        -1.9259998300        -0.5324771400
H        0.9885949280        -2.5193915680         0.4981182760
O        0.7982373280        -0.5396333490         0.5107685310
O        0.3659708780         0.5059285490        -0.4150878480
C        0.9570010840         1.7010292550         0.0586314710
H        0.5960951350         2.4751695240        -0.6159976880
H        0.6347836330         1.9203854040         1.0775012100
H        2.0445059160         1.6399237100         0.0139123870
