           9

H        2.2648962080         0.0000000000        -2.0227788450
C        2.9533510950         0.0000000000        -1.1819429850
O        2.1761457830         0.0000000000         0.0000000000
H        3.5877407220        -0.8901362790        -1.2347000780
H        3.5877407220         0.8901362790        -1.2347000780
C        2.9533510950         0.0000000000         1.1819429850
H        2.2648962080         0.0000000000         2.0227788450
H        3.5877407220        -0.8901362790         1.2347000780
H        3.5877407220         0.8901362790         1.2347000780
