          12

H       -4.3833257160        -0.8126669750         0.6288713640
C       -4.3098650150        -0.0952928910        -0.1845393440
H       -4.2151400320        -0.6218855450        -1.1307813200
H       -5.1829183810         0.5477187820        -0.1982575060
O       -3.1963959240         0.7913663780         0.0180279820
C       -1.9607488350         0.3035493090         0.0827158500
O       -1.9216241790        -1.0244588950        -0.0585273980
O       -1.0067467870         1.0192101750         0.2531255770
C       -0.6156412300        -1.6315029550         0.0026529440
H       -0.7902554870        -2.6958828590        -0.1042516940
H        0.0132445470        -1.2629622900        -0.8022634630
H       -0.1422815990        -1.4144565110         0.9556587430
