           6

O        2.6076792680         0.0000000000        -0.5638093180
C        3.1548952040         0.0000000000         0.7544876170
H        3.3155528720         0.0000000000        -1.2107367500
H        2.3119233070         0.0000000000         1.4403017070
H        3.7576872780        -0.8911386050         0.9383448010
H        3.7576872780         0.8911386050         0.9383448010
