          10

H       -1.1390487160         2.1028580530         0.3748528260
C       -1.5170243520         1.1185052740         0.1660764770
C       -2.6742055390         0.7104205010        -0.4554831700
N       -0.8241092460         0.0000000000         0.5431518090
H       -3.4344722130         1.3558555510        -0.8586911310
C       -2.6742055390        -0.7104205010        -0.4554831700
C       -1.5170243520        -1.1185052740         0.1660764770
H        0.0882930550         0.0000000000         0.9784162750
H       -3.4344722130        -1.3558555510        -0.8586911310
H       -1.1390487160        -2.1028580530         0.3748528260
