           7

H        4.2077457890         0.6501128410        -0.8871779910
C        3.9283997710         0.0908782340         0.0000000000
N        2.4374593460        -0.0173220780         0.0000000000
H        4.3414221300        -0.9088683510         0.0000000000
H        4.2077457890         0.6501128410         0.8871779910
O        1.9412684320        -1.1256938990         0.0000000000
O        1.8133419150         1.0338368270         0.0000000000
