          10

H       -0.9470991620        -1.7784784020         0.0000000000
C       -1.6539570340        -0.9694424190         0.0000000000
C       -3.0290562760        -0.9641241740         0.0000000000
N       -1.2301366090         0.3316897490         0.0000000000
H       -3.6623215360        -1.8337500140         0.0000000000
C       -3.4468396060         0.3945634050         0.0000000000
H       -0.2654741800         0.6195820960         0.0000000000
C       -2.3116310490         1.1706357000         0.0000000000
H       -4.4589897750         0.7590459010         0.0000000000
H       -2.1883009490         2.2383301460         0.0000000000
