           6

H       -0.1827528310        -1.2105319920         0.0000000000
C        0.9053760470        -1.1754777360         0.0000000000
H        1.3346794130        -1.6651376760        -0.8759709840
H        1.3346794130        -1.6651376760         0.8759709840
N        1.4303970100         0.2036940350         0.0000000000
O        0.5852598930         1.0577310290         0.0000000000
