          11

H        1.2289932990         1.2961974860         0.3408427000
C        0.3589577080         1.7173549060        -0.1563799540
O       -0.8371072200         1.0052787670         0.2182839210
H        0.1910299540         2.7425202480         0.1548313280
H        0.5008673470         1.6659676930        -1.2337893550
C       -0.8794446160        -0.2977661520        -0.0909304700
O        0.0144176000        -0.8838603800        -0.6526288420
C       -2.1751870750        -0.9205457310         0.3502906680
H       -3.0142147640        -0.3981007620        -0.1064629470
H       -2.1903468050        -1.9675725590         0.0686230530
H       -2.2813402820        -0.8243196470         1.4299548220
