           7

H       -2.1984851140        -1.6325156460        -0.5791602240
C       -2.4572793600        -0.8333225700         0.1181740620
H       -3.5477759120        -0.7728321390         0.1357841590
H       -2.0797129570        -1.0657429320         1.1099264070
C       -1.8972229740         0.4628490200        -0.3817821100
H       -2.2346991970         0.7657918760        -1.3928563190
O       -1.1341689570         1.1634726710         0.2326815450
