          10

H        3.7056233060         0.2832133260         1.1581512820
C        2.8947968280         0.8507401580         0.6973159870
H        2.4485395740         1.4788632090         1.4671311940
N        1.8962332860        -0.0599879290         0.1669666830
H        3.3430948780         1.5073433830        -0.0644505120
C        2.3918905740        -0.8703375300        -0.9310524220
H        1.0742970830         0.4511669230        -0.1317332800
H        2.8196423470        -0.2817022780        -1.7572796090
H        1.5824440990        -1.4783396290        -1.3336386310
H        3.1709213010        -1.5454146650        -0.5714332100
