           6

O       -1.8749554200        -0.2682028940         0.6286847800
H       -2.5593287960         0.0767933090         1.2056279030
C       -2.1251210570         0.1584826960        -0.7071574050
H       -3.0773156430        -0.2228588530        -1.0825821870
H       -1.3237354080        -0.2461251400        -1.3196869700
H       -2.1124503570         1.2471704720        -0.7962120970
