          11

H        0.1340532890         1.6978068890         0.3212703580
C       -0.9217281580         1.9257085840         0.1917573250
H       -1.1030777380         2.2383542770        -0.8340271590
O       -1.7282301130         0.7722887780         0.5067429130
H       -1.2410299560         2.6955131600         0.8856532920
C       -1.5593444140        -0.3064667380        -0.2706956130
O       -0.7845777570        -0.3513104590        -1.1955390100
C       -2.4447582230        -1.4395499200         0.1686646860
H       -3.4784564750        -1.1067271860         0.2396488370
H       -2.3602595800        -2.2607317400        -0.5344707710
H       -2.1413188500        -1.7736497480         1.1604424340
