          10

H       -3.7723794350         0.3605125760         0.4627732680
C       -2.9151743530        -0.2326059510         0.7862810650
H       -2.8308582660        -0.1317926980         1.8674781980
H       -3.1379083670        -1.2860512020         0.5541149170
N       -1.7086815740         0.2634162870         0.1494311630
H       -0.8898031670        -0.1785601890         0.5446780600
C       -1.7064828440         0.0847425260        -1.2923095250
H       -1.8939425210        -0.9539932640        -1.6080334970
H       -0.7452323880         0.3961660460        -1.6963965230
H       -2.4823928190         0.7068015860        -1.7421636760
