          12

C        1.3844847840        -1.7197124670         0.5894385860
H        1.3161454910        -2.4183522370        -0.2435840410
C        2.0221629050        -0.4347199790         0.0963542380
H        0.3975987780        -1.5682800330         1.0211271970
H        2.0387599140        -2.1675067190         1.3349091050
N        1.2544495870         0.6735197810         0.1982951670
O        3.1542307870        -0.4145844690        -0.3648483790
C        1.7470323810         1.9662460470        -0.2293174730
H        0.3132048670         0.6010655670         0.5632014720
H        2.0343206160         1.9496723840        -1.2808688130
H        0.9611764500         2.7028462240        -0.0831699550
H        2.6247713010         2.2630095130         0.3449160340
