           7

N       -2.3444032720        -0.4653574770        -0.7134830100
C       -3.2869961170        -0.1789800100         0.3658792020
H       -1.4708837040        -0.8121458310        -0.3308599860
H       -2.7132505650        -1.1789851360        -1.3274815370
H       -3.5366311030        -1.0378030150         1.0004278390
H       -4.2156851950         0.2138488580        -0.0487169020
H       -2.8675627410         0.5928320140         1.0112815870
