           7

N       -2.3162169680         0.0258658890        -0.6353925640
H       -1.5301634930        -0.6060127430        -0.7320902830
H       -3.0188103960        -0.2506369930        -1.3074807360
C       -2.8463165110        -0.0346981800         0.7255896420
H       -3.6687881630         0.6725643090         0.8311171870
H       -3.2066114400        -1.0220757330         1.0371100850
H       -2.0672012860         0.2661834910         1.4258921530
