          10

H       -3.5230253320        -0.4636095930        -1.5039969610
C       -2.4412445580        -0.5894735020        -1.5503324720
O       -1.8803768990        -0.6126268150        -0.2513701870
H       -2.1951487860        -1.5603008500        -1.9766561630
H       -1.9966804210         0.2022913510        -2.1548137780
O       -2.1681276240         0.7024831690         0.3187806620
C       -2.0480107880         0.5437897090         1.7190806680
H       -2.7781546490        -0.1726354610         2.0974841920
H       -1.0382709950         0.2373751870         1.9965873760
H       -2.2527529250         1.5335658360         2.1231048250
