           8

C       -1.6389753660        -0.0560226000         0.0315187140
O       -1.1279486990        -1.1228379520         0.2842197430
O       -0.9346763850         1.0410648820        -0.2734517610
C       -3.1199698950         0.2018506730         0.0214360520
H        0.0258222130         0.8213253910        -0.2424767830
H       -3.6552302300        -0.7131470900         0.2492294940
H       -3.4225833270         0.5816180920        -0.9533873600
H       -3.3628025650         0.9688233720         0.7558858120
