           6

H       -3.7198259120         0.8675499550         0.0000000000
C       -3.2641284170        -0.1208802400         0.0000000000
H       -3.5935635270        -0.6609945460        -0.8856409400
H       -3.5935635270        -0.6609945460         0.8856409400
C       -1.8165976100        -0.0004358290         0.0000000000
N       -0.6739488370         0.0956405690         0.0000000000
