          14

H        3.6336633470         0.9570848590        -0.8756126360
C        3.5130927470         0.3176037820         0.0000000000
C        2.1511191100        -0.3276889780         0.0000000000
H        4.3077717170        -0.4232841400         0.0000000000
H        3.6336633470         0.9570848590         0.8756126360
C        2.1059821000        -1.8266219530         0.0000000000
N        1.0627674100         0.3277869340         0.0000000000
H        2.6284849430        -2.2170951540        -0.8757713220
H        1.0836469420        -2.1921453330         0.0000000000
H        2.6284849430        -2.2170951540         0.8757713220
C        1.0742328120         1.7837478570         0.0000000000
H        0.0464231130         2.1333118860         0.0000000000
H        1.5835243690         2.1785373460        -0.8826504000
H        1.5835243690         2.1785373460         0.8826504000
