           6

O       -2.2099044620        -0.0548165600        -0.5802589920
H       -1.2684695310         0.1388861390        -0.4862119990
C       -2.9131729880         0.6115205100         0.4534855310
H       -3.9623764050         0.3382932440         0.3612425370
H       -2.5662537730         0.3120607990         1.4475646220
H       -2.8334716410         1.6997869650         0.3707727750
