          10

H        2.6856007940         0.4711607730        -1.7897194200
C        2.8464196000         1.1292294130        -0.9366534750
H        2.0591039550         1.8802252030        -0.9419386980
N        2.7699085470         0.3420496300         0.2927486530
H        3.8133420140         1.6287630390        -1.0665036960
H        2.8043882380         0.9575342750         1.0948658870
C        3.8308073570        -0.6586385150         0.3978147440
H        3.7045061210        -1.3951742180        -0.3948008310
H        4.8352780960        -0.2288133080         0.3087676460
H        3.7522546010        -1.1755096590         1.3518832870
