          13

H        2.1773912290         1.0883123420         1.2904371920
C        1.1234091770         0.7849372420         1.2046152850
N        0.8690237000         0.0070002390         0.0000000000
H        0.5080946400         1.6831191490         1.1986258650
H        0.8620449730         0.1967116050         2.0824110010
C        1.6226707750        -1.2399644620         0.0000000000
C        1.1234091770         0.7849372420        -1.2046152850
H        1.3651792030        -1.8232999410        -0.8821143290
H        1.3651792030        -1.8232999410         0.8821143290
H        2.7093483720        -1.0689110710         0.0000000000
H        0.8620449730         0.1967116050        -2.0824110010
H        2.1773912290         1.0883123420        -1.2904371920
H        0.5080946400         1.6831191490        -1.1986258650
