          13

H       -3.9593726960        -1.6143988560         0.0000000000
C       -3.3981481470        -0.6912160200         0.0000000000
C       -4.0377056050         0.5389358690         0.0000000000
C       -2.0048792810        -0.7528534420         0.0000000000
C       -3.3041168290         1.7211091940         0.0000000000
H       -5.1184086060         0.5738284460         0.0000000000
O       -1.4309558650        -1.9831802620         0.0000000000
C       -1.2632832000         0.4288301130         0.0000000000
H       -3.8066790340         2.6772386900         0.0000000000
C       -1.9168194620         1.6547122580         0.0000000000
H       -0.4563406100        -1.9263673980         0.0000000000
H       -0.1838777820         0.3918677060         0.0000000000
H       -1.3302986960         2.5630553000         0.0000000000
