          13

H        3.3032104400         2.0466328790         0.7498032770
C        3.1295586100         1.0464931990         0.3798230610
C        1.8169421320         0.6471260570         0.1219302000
C        4.1795878930         0.1679957790         0.1629379820
C        1.5773987240        -0.6429198900        -0.3589204780
O        0.8270392650         1.5386670190         0.3512795640
C        3.9449453030        -1.1189556310        -0.3116144040
H        5.1910068270         0.4912955720         0.3675678650
C        2.6387249700        -1.5140321030        -0.5701120380
H        0.5649409140        -0.9537535110        -0.5727340450
H       -0.0584766090         1.1384896190         0.1926381730
H        4.7666403950        -1.7998808160        -0.4785154880
H        2.4388985080        -2.5092308990        -0.9434115270
