          14

H       -4.1815622750        -0.1988600710        -0.8759139180
C       -3.8312597080         0.3493688640         0.0000000000
H       -4.1815622750        -0.1988600710         0.8759139180
H       -4.2952050940         1.3317856350         0.0000000000
C       -2.3253984290         0.4448447630         0.0000000000
N       -1.5511164170        -0.5629075800         0.0000000000
C       -1.7337183610         1.8233282160         0.0000000000
C       -2.1126282770        -1.9041677920         0.0000000000
H       -2.0764873320         2.3788450810        -0.8755313050
H       -0.6487038470         1.7883017440         0.0000000000
H       -2.0764873320         2.3788450810         0.8755313050
H       -2.7322701260        -2.0862780250        -0.8821865320
H       -1.3023617870        -2.6285874730         0.0000000000
H       -2.7322701260        -2.0862780250         0.8821865320
