          10

H       -1.2368251790        -2.1443241120         0.8782415750
C       -1.4496418950        -1.5344360860         0.0000000000
H       -1.2368251790        -2.1443241120        -0.8782415750
N       -0.5247671090        -0.4044109940         0.0000000000
H       -2.4901741880        -1.2099480740         0.0000000000
N       -1.0831663100         0.6916611040         0.0000000000
C       -0.1644393540         1.8274805960         0.0000000000
H       -0.3927501160         2.4344119000        -0.8765186790
H       -0.3927501160         2.4344119000         0.8765186790
H        0.8826773120         1.5269028140         0.0000000000
