          14

H        0.5583459650        -0.9953430810         1.2301166550
C       -0.3056416060        -0.6170592300         0.7015736200
C       -1.3962230040        -1.4401340280         0.4681058130
C       -0.3130072010         0.7185525430         0.2751569880
C       -2.5250722750        -0.9603478330        -0.1871169130
H       -1.3650809700        -2.4667618580         0.8070829350
C       -1.4550240060         1.1958705670        -0.3809595240
N        0.7652276070         1.5455995320         0.5409204670
H       -3.3734901600        -1.6043683530        -0.3650326510
C       -2.5424290500         0.3657564460        -0.6049962190
H       -1.4827305160         2.2255424240        -0.7138011380
H        1.6678819400         1.0857791080         0.6196939750
H        0.7968799480         2.3976672140         0.0078528980
H       -3.4111572740         0.7596823630        -1.1145860200
