          14

H        0.0397661080         0.7996634170         1.8762568400
C       -0.6472321580         0.4126585910         1.1374621240
C       -1.3122215230        -0.7830218000         1.3594561240
C       -0.8589608190         1.1382574480        -0.0436890490
H       -1.1307128520        -1.3240166400         2.2778378550
C       -2.2052620970        -1.2891099370         0.4198333880
C       -1.7612063550         0.6252838530        -0.9844541800
N       -0.2161827680         2.3489607980        -0.2458011180
C       -2.4249409550        -0.5703441860        -0.7503490140
H       -2.7235902220        -2.2193635590         0.5989198680
H       -1.9394340710         1.1721746430        -1.9012189050
H       -0.2328979190         2.6883379390        -1.1930123530
H        0.7086309300         2.4082182950         0.1555681430
H       -3.1176318170        -0.9439024590        -1.4918554510
