          10

H       -2.4705962740         1.1254585610         1.3007167420
C       -2.9864065090         1.3909183260         0.3775527520
H       -3.9662210690         1.8079968160         0.6453756580
N       -3.0741261620         0.2149453990        -0.4793646580
H       -2.4060608860         2.1662187110        -0.1192768840
C       -3.9337480460        -0.8254755910         0.0720341430
H       -3.4001882620         0.4813078890        -1.3980803030
H       -4.0179503310        -1.6476231960        -0.6367980100
H       -3.4835745200        -1.2139077430         0.9860114450
H       -4.9439499390        -0.4719573460         0.3174350130
