          10

H       -3.3538037110         1.2722670140        -1.1672972240
C       -2.4966624000         1.2074712530        -0.4948080210
N       -2.5907610270        -0.0000133530         0.3055537840
H       -1.5855315930         1.2572680800        -1.1127750480
H       -2.5160792840         2.0826300050         0.1534743520
C       -2.4966323910        -1.2074780140        -0.4948346220
H       -1.8434728310        -0.0000115820         0.9890724480
H       -3.3537718310        -1.2722799390        -1.1673256210
H       -1.5855000530        -1.2572389570        -1.1128022370
H       -2.5160281400        -2.0826515770         0.1534283970
