           7

N       -2.5525413200         0.0145538200        -0.6152642170
H       -3.1681112880        -0.5383750510        -1.1960124720
C       -2.9964136560        -0.0007809880         0.7753598440
H       -1.6164652400        -0.3765328660        -0.6833949120
H       -3.0548790060        -0.9965368520         1.2335832620
H       -3.9798803110         0.4628565780         0.8577441800
H       -2.3070793810         0.5939659150         1.3750068110
