           7

N       -1.6641306360        -0.6048896350         0.3205365360
H       -2.0042272670        -1.3008809380        -0.3299113090
H       -2.2367217940        -0.6730685770         1.1511136510
C       -1.7463779670         0.7357990020        -0.2668218390
H       -1.0771698460         0.7872662470        -1.1239101060
H       -2.7494901350         1.0314192000        -0.5913644010
H       -1.3987486680         1.4660627950         0.4624784580
