          12

C       -1.5113644160        -1.8101994270         0.0000000000
H       -1.9086449810        -2.3167647420        -0.8777908290
H       -1.9086449810        -2.3167647420         0.8777908290
H       -0.4266258940        -1.8890870070         0.0000000000
C       -2.0051619350        -0.3761756250         0.0000000000
O       -3.1982530080        -0.1106251750         0.0000000000
N       -1.0436276830         0.5741735820         0.0000000000
H       -0.0613247770         0.3075449010         0.0000000000
C       -1.3927436120         1.9795604770         0.0000000000
H       -1.9829027300         2.2392477490        -0.8789839920
H       -0.4778906800         2.5669146170         0.0000000000
H       -1.9829027300         2.2392477490         0.8789839920
