          13

H        3.3554290180        -0.9347177720        -1.2907907010
C        2.2699625810        -0.7770994410        -1.2041575170
H        1.7838517000        -1.7512321130        -1.2001086650
H        1.9318411120        -0.2308621940        -2.0832187790
N        1.9117528040        -0.0411270840         0.0000000000
C        2.2699625810        -0.7770994410         1.2041575170
C        2.4983077460         1.2919207010         0.0000000000
H        1.9318411120        -0.2308621940         2.0832187790
H        3.3554290180        -0.9347177720         1.2907907010
H        1.7838517000        -1.7512321130         1.2001086650
H        2.1713757580         1.8382129910        -0.8834848190
H        2.1713757580         1.8382129910         0.8834848190
H        3.5982581890         1.2651745190         0.0000000000
