          10

H        1.2989545320         1.9385397840        -0.8331165360
C        0.8676249420         1.3972752440         0.0101336350
H       -0.2156055250         1.4494101040        -0.0328277000
C        1.3373609950        -0.0380834090         0.0036091250
H        1.2207438070         1.8934324400         0.9159915090
C        2.8308779680        -0.2594288160        -0.0212161710
O        0.5612336940        -0.9676418470         0.0180623140
H        3.2501614440         0.1580872620        -0.9383867890
H        3.0552340490        -1.3201552370         0.0328815420
H        3.3054223600         0.2650057760         0.8094124040
