           7

H       -0.3750679520        -1.2575582710        -0.1327918810
C        0.6520753030        -1.2509699700        -0.4860127320
H        0.6617724530        -1.2478999460        -1.5711932520
H        1.2337319480        -2.0646495370        -0.0739663720
N        1.2636219210         0.0379305590        -0.0361946940
O        0.7397305310         1.0642263690        -0.4403858000
O        2.2312902450        -0.0144926430         0.6970147590
