           6

H       -3.1042283850        -1.0232564500         0.9820237320
C       -2.4341530210        -0.1673651480         0.9393328340
H       -2.9520754290         0.7109147750         1.3187828700
H       -1.5437377860        -0.3611013530         1.5334335320
N       -2.0394854390         0.0598687200        -0.4068903030
C       -1.6720338730         0.2420785460        -1.4940321790
