          13

H        0.7373139570         1.0093741640         0.8150275370
C       -0.2246819520         0.6669014430         0.4640401430
C       -0.4103458270        -0.6831383410         0.1880736450
C       -1.2784369140         1.5498692520         0.2797049850
C       -1.6395466190        -1.1460724600        -0.2675001240
O        0.6577239670        -1.5215807090         0.3815483820
C       -2.5132184270         1.0990536890        -0.1745116670
H       -1.1313509490         2.5989700030         0.4934757190
C       -2.6873288340        -0.2514296390        -0.4462080370
H       -1.7764968560        -2.1987402370        -0.4812751870
H        0.4070249740        -2.4235948710         0.1655646290
H       -3.3290296400         1.7925121630        -0.3150950230
H       -3.6411837500        -0.6160242790        -0.7999922160
