          12

C        1.7145294090        -1.7939443390        -0.5258871900
H        2.3576016220        -1.6900334840        -1.3976836480
H        0.7515369000        -2.1910530130        -0.8439673100
C        1.4682215330        -0.4898953660         0.1960255320
H        2.1590717970        -2.5015817660         0.1696897510
O        0.9371170170        -0.4546430000         1.2997617570
N        1.8576529760         0.6324939180        -0.4512277020
H        2.1905589050         0.5455522510        -1.3937447490
C        1.5911460200         1.9608871680         0.0709540070
H        2.2801920210         2.6673805260        -0.3850011120
H        0.5665312060         2.2731899030        -0.1317072680
H        1.7431892550         1.9555732620         1.1465322290
