           7

N        1.6167431360         0.6900936780         0.0000000000
C        1.9685258790        -0.7325953620         0.0000000000
H        1.9977611370         1.1565029170        -0.8124770950
H        1.9977611370         1.1565029170         0.8124770950
H        1.5319249550        -1.2086554250        -0.8766892600
H        1.5319249550        -1.2086554250         0.8766892600
H        3.0439413150        -0.9372010510         0.0000000000
