          10

H       -0.7606620650        -2.2949545610         0.8778863440
C       -1.2187148420        -1.8390391140         0.0000000000
H       -0.7606620650        -2.2949545610        -0.8778863440
N       -0.8768932270        -0.4197968550         0.0000000000
H       -2.2965376570        -1.9992062260         0.0000000000
N       -1.8533872370         0.3277436570         0.0000000000
C       -1.5102061750         1.7461245000         0.0000000000
H       -1.9700827180         2.2005115810        -0.8775851490
H       -1.9700827180         2.2005115810         0.8775851490
H       -0.4335125680         1.9159628150         0.0000000000
