           7

H       -0.9092780930         1.9911720620        -0.8905046400
C       -0.4735056470         1.5362866070         0.0000000000
N       -0.6616753050         0.0756772770         0.0000000000
H       -0.9092780930         1.9911720620         0.8905046400
H        0.5968088950         1.7106650810         0.0000000000
N       -1.8223438250        -0.3175241800         0.0000000000
N       -2.8478012970        -0.7885851980         0.0000000000
