           6

H       -3.7075945960        -0.5111423730        -0.8853252480
C       -3.3339452560         0.0000003960         0.0000000000
H       -3.7075945960        -0.5111423730         0.8853252480
H       -3.7075944060         1.0222859820         0.0000000000
C       -1.8808059440         0.0000000510         0.0000000000
N       -0.7333847100        -0.0000006300         0.0000000000
