           7

H        1.1060724050         1.4419824430        -1.3517041410
C        0.8068226780         1.5078072390        -0.3086414880
O        1.2486616870         0.2933348330         0.3846235300
H       -0.2723327190         1.5943266460        -0.2087462300
H        1.3284571880         2.3152603460         0.1905127000
C        0.6485209880        -0.7859330490         0.0500301790
N        0.1253653450        -1.7797666880        -0.2227193750
