          10

H       -2.1006540940        -0.6260513760        -1.7946548020
C       -1.7535918670         0.2815246140        -1.2979618390
H       -2.5125086600         1.0600091720        -1.4585647240
H       -0.8322501090         0.6011907200        -1.7815259400
N       -1.4983832670         0.0025243500         0.1080084680
C       -2.7068087290        -0.3188923310         0.8518781170
H       -1.0322643650         0.7972239290         0.5263303360
H       -2.4669847460        -0.4519405140         1.9057286880
H       -3.1262685150        -1.2559007520         0.4821373170
H       -3.4890010440         0.4492309750         0.7701773930
