           6

H        0.6707077680         1.3559885310         0.0000000000
C        1.7566238600         1.4208424610         0.0000000000
N        2.3059367780         0.1120195110         0.0000000000
H        2.0885335100         1.9559847920        -0.8868038230
H        2.0885335100         1.9559847920         0.8868038230
C        2.6990596140        -0.9812733390         0.0000000000
