           7

H        1.6364897290         2.3351683950         0.9030712450
C        1.3500006860         1.8111285950         0.0000000000
H        1.6364897290         2.3351683950        -0.9030712450
N        2.0385837810         0.4855586540         0.0000000000
H        0.2830440060         1.6046109830         0.0000000000
O        2.2829111810        -0.0214888180        -1.0809621680
O        2.2829111810        -0.0214888180         1.0809621680
