           6

H       -0.5764965130         1.5234711830        -0.8954680180
C       -1.5735373150         1.8414358270        -0.5970677650
H       -2.0663771160         2.3286152340        -1.4365128130
C       -2.3472249060         0.6911144310        -0.1635341850
H       -1.4779244750         2.5534551210         0.2200052010
N       -2.9514001910        -0.2247710890         0.1766611570
