          14

H        0.2659889550        -1.3497538560         1.7887925560
C        0.8328150270        -0.7832410930         1.0628450290
C        0.6943306600        -1.0792226770        -0.2980251770
C        1.6865521990         0.2270278400         1.4800666110
N       -0.1255412140        -2.1191549140        -0.7161114340
C        1.4339868930        -0.3329879330        -1.2224367390
H        1.7772642890         0.4380013890         2.5365699090
C        2.4193575180         0.9664118690         0.5583464710
H       -0.4371264180        -2.0690782870        -1.6712561470
H       -0.8688567410        -2.3656984830        -0.0835045880
H        1.3362199620        -0.5483995360        -2.2781946280
C        2.2844009840         0.6746536730        -0.7950819470
H        3.0837926020         1.7514610550         0.8873649260
H        2.8448982810         1.2386695350        -1.5276564680
