           7

H       -1.6977928780         2.6604261620         0.4660977050
C       -1.2442246690         2.0509973190        -0.3169038980
N       -2.1289056810         0.9326318890        -0.6905020940
H       -1.1187302540         2.6554644700        -1.2077864320
H       -0.2720034810         1.6913167650         0.0129972770
N       -2.3773575330         0.1174727220         0.1813618210
N       -2.6736813110        -0.7041741050         0.9007210460
