           9

H       -1.5730506380        -2.0939994620         0.4108222240
C       -1.8399258240        -1.1129586820         0.7947076860
O       -2.4856411630        -0.4126776540        -0.2473767350
H       -0.9293595260        -0.5989851110         1.1157845570
H       -2.5030271720        -1.2335922030         1.6596240610
C       -2.8574813410         0.8910207930         0.1346290780
H       -3.3340794880         1.3604822140        -0.7229117490
H       -3.5656726520         0.8758636520         0.9718342910
H       -1.9843855710         1.4833308790         0.4295126870
