           8

H       -0.6036550770         0.4256256950         0.0000000000
O       -1.4357970550         0.9283423040         0.0000000000
C       -2.4550433180         0.0464219120         0.0000000000
C       -3.7876209590         0.7416115160         0.0000000000
O       -2.2911335040        -1.1469916840         0.0000000000
H       -4.5842609330         0.0062222060         0.0000000000
H       -3.8693643300         1.3821802360        -0.8770951090
H       -3.8693643300         1.3821802360         0.8770951090
