          10

H       -1.9426131110         1.2724631470         0.8767574390
C       -2.9232945290         1.2125087060         0.4035450440
H       -3.6808170930         1.2618350560         1.1994314230
N       -2.9957930710         0.0000000000        -0.3971486990
H       -3.0394731250         2.0854792280        -0.2370025790
H       -3.8410847280         0.0000000000        -0.9504992580
C       -2.9232945290        -1.2125087060         0.4035450440
H       -3.6808170930        -1.2618350560         1.1994314230
H       -3.0394731250        -2.0854792280        -0.2370025790
H       -1.9426131110        -1.2724631470         0.8767574390
