           6

H       -0.6981402670        -1.3879739950         0.0276088500
C       -1.7570366420        -1.3696111880         0.2852958680
H       -2.2054747940        -2.2879116100        -0.0965678850
N       -2.3597544780        -0.2585288190        -0.4742161980
H       -1.9092113990        -1.2544536160         1.3568793260
O       -2.8879801360         0.5754696580         0.2082933290
