          12

H       -0.8527269130         2.1383235770        -1.1856260040
C       -1.1919067180         1.2039403520        -0.7624663360
C       -0.7707383200         0.0000000000        -1.3153339550
C       -2.0377798020         1.2043128730         0.3413183330
C       -1.1919067180        -1.2039403520        -0.7624663360
H       -0.1012725880         0.0000000000        -2.1631358000
C       -2.4613919390         0.0000000000         0.8932288150
H       -2.3648882540         2.1405863670         0.7711275260
H       -0.8527269130        -2.1383235770        -1.1856260040
C       -2.0377798020        -1.2043128730         0.3413183330
H       -3.1197515190         0.0000000000         1.7505857780
H       -2.3648882540        -2.1405863670         0.7711275260
