          12

C       -0.6965733750         0.7823421820         1.0680216140
C       -1.4558356480        -0.3435548110         1.3649192320
C       -0.7894000800         1.3737773480        -0.1870531650
H       -0.0236743570         1.1949581140         1.8055839220
C       -2.3092692480        -0.8799950400         0.4065887920
H       -1.3811703810        -0.8035185510         2.3402049210
C       -1.6461801160         0.8403974370        -1.1434285890
H       -0.1814537090         2.2354724680        -0.4190001470
C       -2.4053607940        -0.2870857700        -0.8476041580
H       -2.8998032720        -1.7554892160         0.6374009600
H       -1.7195556320         1.3006672350        -2.1186811980
H       -3.0712047470        -0.7012867310        -1.5916729170
