           6

O       -2.3007140380         0.7597426730         0.0000000000
C       -2.6418816020        -0.6160380920         0.0000000000
H       -1.3427151590         0.8383765780         0.0000000000
H       -3.7281509230        -0.6767783760         0.0000000000
H       -2.2635240360        -1.1315810460        -0.8872068370
H       -2.2635240360        -1.1315810460         0.8872068370
