          10

H       -2.2034977160         1.3110482810         1.1714301350
C       -1.2427886630         1.2830688000         0.6551504220
H       -1.1537726620         2.1399180810        -0.0056620170
C       -1.1043143520         0.0000000000        -0.1306738220
H       -0.4657750570         1.3269291110         1.4197768240
C       -1.2427886630        -1.2830688000         0.6551504220
O       -0.8832813230         0.0000000000        -1.3192772500
H       -1.1537726620        -2.1399180810        -0.0056620170
H       -0.4657750570        -1.3269291110         1.4197768240
H       -2.2034977160        -1.3110482810         1.1714301350
