           6

H        2.2701896330        -0.8802946240        -0.8070759790
C        2.7046581850        -0.3561958500         0.0329461010
C        2.4679219540         0.9307874560         0.2385234440
H        3.3415847450        -0.9281604780         0.6949257980
H        1.8361097160         1.5008404730        -0.4287796780
H        2.9008383070         1.4625553740         1.0755577260
