           6

H        0.0664691620        -0.5781164380         0.0000000000
C        1.1486732340        -0.6102579330         0.0000000000
H        1.6141671750        -1.5877515150         0.0000000000
C        1.8791830000         0.4951256330         0.0000000000
H        1.4209559060         1.4756421710         0.0000000000
H        2.9609998200         0.4686544870         0.0000000000
