           6

H        1.6985278290         1.2232674410        -0.6263443800
C        2.3153173830         0.6622017320         0.0621270490
C        2.3153173830        -0.6622017320         0.0621270490
H        2.9340490250         1.2317735760         0.7429044650
H        1.6985278290        -1.2232674410        -0.6263443800
H        2.9340490250        -1.2317735760         0.7429044650
