           6

H        1.0352750860         0.0000000000         0.9387989710
C        2.0860295420         0.0000000000         0.6767297680
C        2.4958276080         0.0000000000        -0.5831987090
H        2.7957146300         0.0000000000         1.4940717830
H        1.7959705570         0.0000000000        -1.4086609890
H        3.5456889090         0.0000000000        -0.8450655390
