           6

H       -1.4471243340         0.4427727040        -1.1403281010
C       -2.3717703360         0.2399416830        -0.6174214440
H       -3.2923657430         0.4461630530        -1.1473242200
C       -2.3717703360        -0.2399416830         0.6174214440
H       -3.2923657430        -0.4461630530         1.1473242200
H       -1.4471243340        -0.4427727040         1.1403281010
