          12

H       -2.1869711730         1.5037822900         1.1104646780
C       -1.2499107350         1.8731624590         0.7011223620
O       -0.9224581540         1.1950274750        -0.5211152440
H       -0.4555982330         1.7480276380         1.4329922490
H       -1.3475898100         2.9185196790         0.4280701190
C       -0.7082338320        -0.1234576350        -0.5124913710
O       -0.3795590700        -0.7269489530        -1.4950708830
O       -0.9111110190        -0.6633336330         0.6998499040
C       -0.6513391190        -2.0717083120         0.7910591560
H       -1.2673309310        -2.6175062320         0.0812416780
H       -0.9014033010        -2.3474088570         1.8097454680
H        0.3978860360        -2.2708613240         0.5886170600
