           6

H        2.2528065180        -1.7127658840         0.0372462200
C        1.3952112490        -1.1466324580        -0.3278766730
H        1.4863274940        -0.8967241440        -1.3834973000
H        0.4994310470        -1.7365181350        -0.1308073630
N        1.2905336960         0.0616111200         0.5129457160
O        1.2809224330         1.0904042230        -0.1039801840
