           6

H        2.7571575000         1.1468706850         1.0524115850
C        2.2343427540         0.7068443710         0.2136339860
C        2.4287328460        -0.5543647910        -0.1434799330
H        1.5481419090         1.3497015300        -0.3204521110
H        1.9074294580        -0.9894613390        -0.9853148050
H        3.1207122560        -1.1949629200         0.3874167760
