           7

H       -1.8261687690        -1.4114867510        -1.3222574800
C       -1.2436314800        -1.5499434640        -0.4098659460
H       -0.1941928990        -1.6955810220        -0.6656437090
H       -1.6105276430        -2.4259291120         0.1131691850
N       -1.4093036630        -0.4107206630         0.5068450140
N       -1.0538341980         0.6785635600         0.0806226270
N       -0.7590752490         1.7319970670        -0.2030740040
