           7

N        1.8354696390        -0.6576690050         0.0000000000
H        2.3568096390        -0.9578525680        -0.8126565750
H        2.3568096390        -0.9578525680         0.8126565750
C        1.6569630180         0.7949126410         0.0000000000
H        1.0791773690         1.0837457520        -0.8769759020
H        2.5865295030         1.3750495660         0.0000000000
H        1.0791773690         1.0837457520         0.8769759020
