           7

H        0.0889938570         1.5894320500         0.6121139800
C        1.1605490020         1.5263149080         0.4479831650
H        1.5350016990         2.4183027810        -0.0392225260
O        1.4372801960         0.4402996570        -0.4867388400
H        1.6910078360         1.3425045370         1.3787270760
C        1.0800873540        -0.7293219310        -0.0992417450
N        0.7728537790        -1.7974465260         0.2141303630
