           6

H       -2.3936086580        -1.0792834530         0.0000000000
C       -3.0180735390        -0.1963926410         0.0000000000
H       -4.0893949200        -0.3487315890         0.0000000000
C       -2.4915892850         1.0187552170         0.0000000000
H       -1.4211147510         1.1711935230         0.0000000000
H       -3.1085129080         1.9077422810         0.0000000000
