           9

H       -1.1834973320         0.4681035110         1.8664204080
N       -1.0296525780         0.8322440550         0.9458827000
C       -0.7581925310         0.0288146390        -0.1205366640
H       -1.0273108560         1.8275618430         0.8083663330
C       -0.7027008920        -1.4549158300         0.1749176750
O       -0.5512125230         0.4786062180        -1.2303393890
H       -1.1591730000        -1.9932086030        -0.6509190340
H        0.3437213560        -1.7534846640         0.2315978010
H       -1.1941953650        -1.7285161540         1.1067239420
