           6

H        3.7038209260         0.3003668590         0.6599101240
C        2.6968512100        -0.0366899040         0.4512088740
C        2.4221390850        -0.7563289230        -0.6267321120
H        1.9256078950         0.2388692420         1.1573281850
H        1.4168313450        -1.0961236790        -0.8368750300
H        3.1868913920        -1.0366880810        -1.3390390810
