           6

H        1.6443382530        -1.7507325300        -0.8869674970
C        1.2127680310        -1.2920822430         0.0000000000
H        1.6443382530        -1.7507325300         0.8869674970
H        0.1352915300        -1.4443909780         0.0000000000
N        1.4844662070         0.0998112690         0.0000000000
C        1.6681659520         1.2479048720         0.0000000000
