          10

H       -1.5104543340         1.8894598940         0.8139170430
C       -0.6603995090         1.7396331700         0.1454346810
O       -0.7539239200         0.5047882500        -0.5282656960
H       -0.6775198760         2.4889981450        -0.6442540620
H        0.2727605800         1.8141840790         0.7065219030
O       -0.7539239200        -0.5047882500         0.5282656960
C       -0.6603995090        -1.7396331700        -0.1454346810
H        0.2727605800        -1.8141840790        -0.7065219030
H       -1.5104543340        -1.8894598940        -0.8139170430
H       -0.6775198760        -2.4889981450         0.6442540620
