          12

H       -1.7806775850        -0.0770567980         1.3795314140
C       -1.8891823460         0.8207106540         0.7759009070
O       -1.1997239150         0.6782711520        -0.4749242850
H       -1.5173991340         1.6803342840         1.3281762570
H       -2.9304140320         0.9689592240         0.5101855140
C        0.1193762170         0.4747868050        -0.4904045690
O        0.7364377710         0.3212241300        -1.5061377090
O        0.6478787950         0.4664382550         0.7465211270
C        2.0610807850         0.2203483110         0.8001197300
H        2.2870209040        -0.7605876230         0.3895246960
H        2.5989997610         0.9783274850         0.2367517290
H        2.3236490840         0.2645286200         1.8515351630
