           5

C        2.7066433820        -0.5879748630        -0.0094889990
H        2.1170872080        -0.5978490340        -0.9230312760
H        2.0385095690        -0.6414101310         0.8463113990
H        3.2857897760         0.3315232890         0.0388298540
H        3.3830878730        -1.4394631940        -0.0015460520
