           5

C       -1.4459002460         2.6535521920        -0.0457757050
H       -2.1019073490         1.7868722650        -0.0571974020
H       -0.4136017080         2.3169981480        -0.0858221760
H       -1.6093401310         3.2218563310         0.8673932790
H       -1.6595046380         3.2845921900        -0.9058775870
