          10

H       -1.8404015050         1.1203352090         1.3597809650
C       -0.9764133750         1.2258286220         0.7017606710
C       -0.7744944590        -0.0368416600        -0.1050128140
H       -1.1177628120         2.0749690920         0.0402911740
H       -0.1098658120         1.3987581990         1.3418180110
O       -0.7559395440        -0.0246224380        -1.3132275020
C       -0.5925355220        -1.3141422770         0.6828630650
H       -0.4258754570        -2.1491991620         0.0094990790
H       -1.4760523760        -1.5047000680         1.2945760860
H        0.2519903390        -1.2156613150         1.3660168140
