           5

C       -0.4634799350        -2.7889430810         0.0607559730
H       -0.4485762510        -3.8743551470         0.1216204840
H       -1.4798311550        -2.4503662460        -0.1259039090
H       -0.1068663680        -2.3694337310         0.9987962010
H        0.1760011310        -2.4593114770        -0.7541673120
