           5

C       -2.6524677550        -0.1144083370         0.0000000000
H       -3.5781500850        -0.6846388370         0.0000000000
H       -1.8069674730        -0.7972765390         0.0000000000
H       -2.6185452600         0.5115551950        -0.8893320910
H       -2.6185452600         0.5115551950         0.8893320910
