           5

C       -2.7513759990         0.0243853610         0.0000000000
H       -3.6704647230         0.6050069680         0.0000000000
H       -3.0001488480        -1.0350287350         0.0000000000
H       -2.1744337210         0.2690649970        -0.8887693030
H       -2.1744337210         0.2690649970         0.8887693030
