           9

H        1.2462440360        -1.3688124990        -1.6841242490
C        0.9852176360        -0.7161469280        -0.8706731210
C        0.5853019840        -1.0937861530         0.3672488790
C        0.9852176360         0.7161469280        -0.8706731210
H        0.4303706780        -2.0465708000         0.8370660860
O        0.3382841400         0.0000000000         1.1380804610
H        1.2462440360         1.3688124990        -1.6841242490
C        0.5853019840         1.0937861530         0.3672488790
H        0.4303706780         2.0465708000         0.8370660860
