          13

H       -0.8526910950        -0.9775173090        -2.0939168050
C       -0.9135502390        -0.4200287630        -1.1710151080
C       -0.5931786210        -1.0560729640         0.0244179150
C       -1.2985287040         0.9120675880        -1.1560124730
O       -0.2127226900        -2.3647567730        -0.0423256140
C       -0.6575458530        -0.3574300300         1.2261568020
H       -1.5442675640         1.4021676210        -2.0874124720
C       -1.3675545560         1.6192961240         0.0404656300
H        0.0038680850        -2.6865303920         0.8366915010
H       -0.4002227220        -0.8529010880         2.1536858350
C       -1.0454855480         0.9767026720         1.2290891890
H       -1.6651141190         2.6572102770         0.0453468820
H       -1.0878058960         1.5141779640         2.1654641740
