          12

C       -1.5049427480        -1.9045738120         0.3670023970
H       -1.5858511590        -2.6574278610        -0.4114765080
C       -1.3601738450        -0.5425930930        -0.2736489250
H       -0.6041754120        -2.1029499460         0.9481491470
H       -2.3640675410        -1.9714566730         1.0322136710
O       -0.7686948470        -0.3855490940        -1.3326153450
N       -1.9115606580         0.4856413820         0.4174455360
H       -2.2385255440         0.2932032750         1.3472069320
C       -1.6782258450         1.8705480970         0.0580225200
H       -1.5700163260         1.9335750910        -1.0202316850
H       -0.7696599210         2.2542062850         0.5244255290
H       -2.5257783880         2.4775925910         0.3685989920
