           7

H        3.5861725140        -0.3392007830         0.8653297030
C        2.6424835430        -0.6005382710         0.3822514280
H        2.8302848690        -1.1664762610        -0.5266095490
H        2.0680794630        -1.2001257650         1.0902647670
C        1.8619017330         0.6423180740         0.0911042820
O        1.4369507090         0.9509708710        -0.9951553340
H        1.6788507090         1.2938099410         0.9657749600
