           7

H       -1.2867356490        -2.5047552460         0.2096601570
C       -1.1364555340        -1.5997932450        -0.3684413070
H       -1.8592588990        -1.5783636200        -1.1859681630
H       -0.1232643700        -1.5712364360        -0.7687752430
N       -1.3558235660        -0.4705600810         0.5539367250
N       -1.1245519540         0.6428794360         0.1112305100
N       -0.9402435600         1.7193998930        -0.1839932740
