           6

H       -0.4989525180        -1.5696403880         0.1470814080
C       -1.4844482620        -1.1904561320        -0.1149086370
H       -1.7438134620        -1.5004435740        -1.1247793900
H       -2.2251906940        -1.5792427030         0.5802151130
N       -1.4573947990         0.2271666250        -0.0420171160
C       -1.3804504380         1.3848000230         0.0310529360
