          13

H       -0.4056875870        -1.0092589330        -2.0766418430
C        0.0727025980        -0.6913883950        -1.1620845790
C       -0.6159902230        -0.8178218140         0.0398806140
C        1.3506006100        -0.1535069800        -1.1648513310
O       -1.8781379680        -1.3383446010        -0.0095919550
C       -0.0230090280        -0.4127713080         1.2311768680
H        1.8803677970        -0.0534022790        -2.1016267330
C        1.9509467680         0.2590426600         0.0204322770
H       -2.2511085070        -1.3685877260         0.8752718460
H       -0.5638883180        -0.5096556140         2.1641890960
C        1.2576768180         0.1244131690         1.2159933180
H        2.9456040850         0.6794500620         0.0111455240
H        1.7105183030         0.4414681770         2.1446808000
