           5

C       -1.8461013580         0.0052215570         0.0000000000
H       -1.3986572590        -0.4289511610        -0.8919987890
H       -2.9119558470        -0.2086820230         0.0000000000
H       -1.3986572590        -0.4289511610         0.8919987890
H       -1.6962490320         1.0825148940         0.0000000000
