12
0 2
H	0.000000 3.384844 -0.337899
C	0.000000 2.460062 0.226187
C	0.000000 1.246226 -0.390163
H	0.000000 2.543080 1.308527
H	0.000000 1.219913 -1.479584
C	0.000000 0.000000 0.270947
C	0.000000 -1.246226 -0.390163
H	0.000000 0.000000 1.359942
H	0.000000 -1.219913 -1.479584
C	0.000000 -2.460062 0.226187
H	0.000000 -3.384844 -0.337899
H	0.000000 -2.543080 1.308527
