12
0 1
S	0.000000 0.814826 0.000000
C	1.816602 0.895286 0.000000
H	2.089691 1.952409 0.000000
H	2.233725 0.423627 0.893780
H	2.233725 0.423627 -0.893780
C	-0.229905 -1.000389 0.000000
H	0.262482 -1.415790 -0.885366
H	0.262482 -1.415790 0.885366
C	-1.718483 -1.344267 0.000000
H	-2.217912 -0.939459 -0.885189
H	-1.855564 -2.430154 0.000000
H	-2.217912 -0.939459 0.885189
