15
0 1
C	0.023284 0.001597 0.444637
C	-0.654754 -1.203814 0.243315
C	-1.987606 -1.206608 -0.155267
C	-2.657919 -0.001786 -0.356880
C	-1.989888 1.204703 -0.157870
C	-0.656992 1.205274 0.240682
H	-0.132409 -2.142996 0.398496
H	-2.503955 -2.148788 -0.305725
H	-3.697926 -0.003096 -0.665619
H	-2.508001 2.145588 -0.310354
H	-0.136437 2.145780 0.393847
C	1.455119 0.003419 0.880658
H	1.712316 -0.884618 1.456927
H	1.711893 0.895608 1.450652
Cl	2.609827 -0.001422 -0.544346
