16
0 1
C	1.266499 0.633853 -2.652030
C	1.263890 0.632489 -1.322745
H	2.188485 0.634839 -3.223737
H	0.342416 0.640115 -3.223943
H	2.215956 0.625405 -0.791338
C	0.038697 0.624274 -0.454922
H	0.031080 1.516184 0.186571
H	-0.860062 0.680546 -1.080861
C	-0.038697 -0.624274 0.454922
H	-0.031080 -1.516184 -0.186571
H	0.860062 -0.680546 1.080861
C	-1.263890 -0.632489 1.322745
C	-1.266499 -0.633853 2.652030
H	-2.215956 -0.625405 0.791338
H	-2.188485 -0.634839 3.223737
H	-0.342416 -0.640115 3.223943
