15
0 1
C	0.619516 0.000086 0.555734
C	1.279765 -1.204416 0.295248
C	2.573507 -1.205477 -0.215818
C	3.223534 -0.000097 -0.472936
C	2.573604 1.205373 -0.215976
C	1.279870 1.204499 0.295106
H	0.773302 -2.144351 0.492832
H	3.075553 -2.147203 -0.411039
H	4.233113 -0.000149 -0.869943
H	3.075747 2.147018 -0.411339
H	0.773497 2.144507 0.492575
C	-0.766524 0.000177 1.113728
H	-0.976178 -0.889388 1.705597
H	-0.976179 0.889928 1.705314
Br	-2.133671 -0.000035 -0.309558
