15
0 1
C	-0.447006 0.275120 0.020739
C	0.500500 1.301185 -0.008205
C	1.859247 1.004518 -0.023161
C	2.284741 -0.323179 -0.012994
C	1.342808 -1.347343 0.012568
C	-0.018988 -1.051154 0.030560
H	0.174509 2.337985 -0.020608
H	2.586528 1.809466 -0.046354
H	3.344343 -0.555420 -0.027153
H	1.666494 -2.383150 0.018215
H	-0.756205 -1.844236 0.048309
C	-1.917260 0.614763 0.057504
H	-2.175967 1.310262 -0.752139
H	-2.181340 1.096981 1.009030
F	-2.698069 -0.512816 -0.076819
