18
0 1
C	0.433822 0.000000 -0.325915
C	-0.269722 1.199929 -0.183394
C	-1.633842 1.203152 0.095567
C	-2.321461 0.000000 0.236681
C	-1.633871 -1.203129 0.095590
C	-0.269749 -1.199949 -0.183371
H	0.258326 2.142678 -0.297623
H	-2.161005 2.146331 0.197745
H	-3.385019 0.000000 0.450745
H	-2.161054 -2.146296 0.197788
H	0.258274 -2.142713 -0.297583
C	1.922158 0.000000 -0.592845
H	2.186452 0.878329 -1.193096
H	2.186447 -0.878451 -1.193010
C	2.758035 0.000000 0.698842
H	2.537997 0.883166 1.307117
H	2.537983 -0.883054 1.307199
H	3.829383 0.000000 0.473787
