12
0 1
C	-1.859847 0.015458 -0.276823
C	-0.722345 -0.294269 0.337315
H	-2.736281 -0.621185 -0.217808
H	-1.961216 0.925068 -0.862871
H	-0.665963 -1.219424 0.912127
C	0.538177 0.522435 0.303640
H	0.364407 1.442285 -0.266747
H	0.795768 0.833281 1.326089
C	1.728413 -0.247238 -0.291190
H	1.530358 -0.533218 -1.328925
H	2.638887 0.359770 -0.272619
H	1.927646 -1.164896 0.273096
