13
0 1
H	-0.882817 -0.010078 1.315470
C	0.000000 0.000000 0.662442
H	0.882817 0.010078 1.315470
C	0.000000 1.251841 -0.178975
C	0.000000 -1.251841 -0.178975
C	0.954746 2.176348 -0.174868
H	-0.857674 1.367629 -0.840293
H	1.827108 2.091878 0.467638
H	0.902820 3.056369 -0.807079
C	-0.954746 -2.176348 -0.174868
H	0.857674 -1.367629 -0.840293
H	-1.827108 -2.091878 0.467638
H	-0.902820 -3.056369 -0.807079
