21
0 1
Si	-0.822820 0.031028 0.000000
O	0.783721 0.435106 0.000185
C	-1.739134 1.664137 -0.000351
H	-1.486557 2.257995 -0.884531
H	-2.823925 1.510797 -0.000198
H	-1.486377 2.258470 0.883459
C	-1.250736 -0.967264 -1.536652
H	-2.319757 -1.207107 -1.561813
H	-1.015357 -0.409364 -2.449144
H	-0.705141 -1.916301 -1.577069
C	-1.251168 -0.966845 1.536812
H	-1.016155 -0.408640 2.449212
H	-2.320165 -1.206820 1.561692
H	-0.705455 -1.915796 1.577691
C	1.884054 -0.456785 0.000000
H	1.846497 -1.109160 0.885493
H	1.846424 -1.108896 -0.885710
C	3.178231 0.343424 0.000000
H	3.231745 0.982845 -0.885898
H	3.231843 0.982680 0.886141
H	4.044612 -0.325937 0.000000
