 7
-1 1
 C       -1.067681101    -0.271098200     0.098425590
 C        0.361871421     0.290569279    -0.103737259
 H       -1.274226455    -1.017247821    -0.669620680
 H       -1.122005113    -0.781585539     1.060825043
 H       -1.819051732     0.515321513     0.058342297
 O        1.279845864    -0.562993045    -0.089531722
 O        0.451018532     1.538347265    -0.258903660
