 8
1 1
 C        0.687041485    -0.021348442     0.158244910
 N       -0.796548184     0.105617965     0.039344613
 H        0.958993985    -1.044759456    -0.070634654
 H        0.990678267     0.235706496     1.166097459
 H        1.144634560     0.652587758    -0.556167114
 H       -1.270243847    -0.509648168     0.698373151
 H       -1.103958172     1.055158108     0.241676877
 H       -1.110658397    -0.147584181    -0.934324277
